<?xml version="1.0" encoding="UTF-8"?>
<!-- generated on 2018-10-15 11:34:31.936031 by $Id$ via randomTrips.py
  options: 
-->
<routes xmlns:xsi="http://www.w3.org/2001/XMLSchema-instance" xsi:noNamespaceSchemaLocation="http://sumo.dlr.de/xsd/routes_file.xsd">
    <vType id="truck" speedFactor="normc(1.00,0.10,0.20,2.00)" vClass="truck">
    </vType>
    <trip id="truck0" depart="0.00" departLane="best" from="24730644#21" to="-191207584#5" type="truck"/>
    <trip id="truck4" depart="16.18" departLane="best" from="-330222366#0" to="-191207584#9" type="truck"/>
    <trip id="truck5" depart="20.23" departLane="best" from="-102580576#4" to="-27768547#1" type="truck"/>
    <trip id="truck12" depart="48.55" departLane="best" from="-207145445" to="-24730642#10" type="truck"/>
    <trip id="truck23" depart="93.06" departLane="best" from="24730644#19" to="-321823978#11" type="truck"/>
    <trip id="truck27" depart="109.25" departLane="best" from="-24730642#10" to="-321823978#20" type="truck"/>
    <trip id="truck29" depart="117.34" departLane="best" from="218164911" to="24730644#21" type="truck"/>
    <trip id="truck30" depart="121.39" departLane="best" from="-30029227#2" to="-30029227#1" type="truck"/>
    <trip id="truck31" depart="125.43" departLane="best" from="-24730644#6" to="330222366#4" type="truck"/>
    <trip id="truck38" depart="153.76" departLane="best" from="35572872#1" to="206632633" type="truck"/>
    <trip id="truck43" depart="173.99" departLane="best" from="35572872#0" to="207145437" type="truck"/>
    <trip id="truck44" depart="178.03" departLane="best" from="-102580576#1" to="24730651#6" type="truck"/>
    <trip id="truck48" depart="194.22" departLane="best" from="30444184#0" to="-30029227#0" type="truck"/>
    <trip id="truck49" depart="198.26" departLane="best" from="191207584#0" to="-24730653#4" type="truck"/>
    <trip id="truck51" depart="206.36" departLane="best" from="24730642#6" to="-24730651#0" type="truck"/>
    <trip id="truck54" depart="218.49" departLane="best" from="-102580563" to="-30029312#11" type="truck"/>
    <trip id="truck55" depart="222.54" departLane="best" from="-102580576#4" to="321823978#6" type="truck"/>
    <trip id="truck59" depart="238.73" departLane="best" from="-207145441" to="191207584#0" type="truck"/>
    <trip id="truck62" depart="250.86" departLane="best" from="-35573057" to="207145445" type="truck"/>
    <trip id="truck67" depart="271.09" departLane="best" from="35572872#0" to="24730642#4" type="truck"/>
    <trip id="truck69" depart="279.19" departLane="best" from="-218164908#0" to="-28234119" type="truck"/>
    <trip id="truck72" depart="291.33" departLane="best" from="-24730651#4" to="321823978#12" type="truck"/>
    <trip id="truck74" depart="299.42" departLane="best" from="-24730644#8" to="-24730644#19" type="truck"/>
    <trip id="truck75" depart="303.46" departLane="best" from="321823978#9" to="211260242#1" type="truck"/>
    <trip id="truck76" depart="307.51" departLane="best" from="-35573057" to="28234118#2" type="truck"/>
    <trip id="truck78" depart="315.60" departLane="best" from="-207145445" to="-330222367#9" type="truck"/>
    <trip id="truck79" depart="319.65" departLane="best" from="27768549#1" to="24730644#14" type="truck"/>
    <trip id="truck81" depart="327.74" departLane="best" from="30029312#4" to="-30029209#1" type="truck"/>
    <trip id="truck84" depart="339.88" departLane="best" from="-25649885#2" to="321823978#3" type="truck"/>
    <trip id="truck85" depart="343.93" departLane="best" from="-330222367#2" to="30029312#6" type="truck"/>
    <trip id="truck88" depart="356.06" departLane="best" from="102580576#1" to="-28234118#0" type="truck"/>
    <trip id="truck93" depart="376.30" departLane="best" from="218164908#5" to="24730651#4" type="truck"/>
    <trip id="truck98" depart="396.53" departLane="best" from="-218164915" to="330222367#3" type="truck"/>
    <trip id="truck99" depart="400.57" departLane="best" from="-207145437" to="-25649885#3" type="truck"/>
    <trip id="truck100" depart="404.62" departLane="best" from="318477798#3" to="-30029209#0" type="truck"/>
    <trip id="truck103" depart="416.76" departLane="best" from="206632633" to="321823978#9" type="truck"/>
    <trip id="truck104" depart="420.80" departLane="best" from="-24730644#22" to="24730651#2" type="truck"/>
    <trip id="truck105" depart="424.85" departLane="best" from="-24730653#1" to="-330222366#0" type="truck"/>
    <trip id="truck113" depart="457.22" departLane="best" from="24730647#4" to="330222366#1" type="truck"/>
    <trip id="truck114" depart="461.27" departLane="best" from="-218164910" to="-24730644#1" type="truck"/>
    <trip id="truck116" depart="469.36" departLane="best" from="27369330#0" to="-27768549#1" type="truck"/>
    <trip id="truck118" depart="477.45" departLane="best" from="102580576#3" to="321823978#11" type="truck"/>
    <trip id="truck121" depart="489.59" departLane="best" from="-102580563" to="27768547#2" type="truck"/>
    <trip id="truck123" depart="497.68" departLane="best" from="-330222366#4" to="-191207584#1" type="truck"/>
    <trip id="truck124" depart="501.73" departLane="best" from="-207145437" to="319828651#2" type="truck"/>
    <trip id="truck127" depart="513.87" departLane="best" from="-30029209#4" to="321823978#0" type="truck"/>
    <trip id="truck129" depart="521.96" departLane="best" from="-25649885#2" to="-24730642#4" type="truck"/>
    <trip id="truck130" depart="526.00" departLane="best" from="30029209#0" to="319828651#2" type="truck"/>
    <trip id="truck132" depart="534.10" departLane="best" from="-218164915" to="321823978#6" type="truck"/>
    <trip id="truck133" depart="538.14" departLane="best" from="30029312#7" to="331649600" type="truck"/>
    <trip id="truck135" depart="546.24" departLane="best" from="-102580576#4" to="24730725#2" type="truck"/>
    <trip id="truck138" depart="558.37" departLane="best" from="30029209#3" to="-24730642#6" type="truck"/>
    <trip id="truck141" depart="570.51" departLane="best" from="30029227#0" to="-28404800#0" type="truck"/>
    <trip id="truck145" depart="586.70" departLane="best" from="330222366#1" to="-24730644#1" type="truck"/>
    <trip id="truck146" depart="590.74" departLane="best" from="330222367#8" to="-24730653#4" type="truck"/>
    <trip id="truck148" depart="598.84" departLane="best" from="24730642#5" to="206632640#0" type="truck"/>
    <trip id="truck149" depart="602.88" departLane="best" from="-321823978#1" to="211260242#1" type="truck"/>
    <trip id="truck150" depart="606.93" departLane="best" from="-25649885#5" to="24730651#0" type="truck"/>
    <trip id="truck151" depart="610.97" departLane="best" from="-102580563" to="321823978#4" type="truck"/>
    <trip id="truck157" depart="635.25" departLane="best" from="-30029209#4" to="-330222367#0" type="truck"/>
    <trip id="truck159" depart="643.34" departLane="best" from="-218164908#3" to="-330222367#3" type="truck"/>
    <trip id="truck166" depart="671.67" departLane="best" from="-35573057" to="321823978#1" type="truck"/>
    <trip id="truck168" depart="679.76" departLane="best" from="-207145441" to="206633608#1" type="truck"/>
    <trip id="truck169" depart="683.81" departLane="best" from="24730644#18" to="-30029312#9" type="truck"/>
    <trip id="truck174" depart="704.04" departLane="best" from="-321823978#6" to="24730640#1" type="truck"/>
    <trip id="truck175" depart="708.08" departLane="best" from="-24730644#17" to="24730644#6" type="truck"/>
    <trip id="truck178" depart="720.22" departLane="best" from="28234118#0" to="27768547#1" type="truck"/>
    <trip id="truck179" depart="724.27" departLane="best" from="-207147909" to="-330222367#6" type="truck"/>
    <trip id="truck182" depart="736.41" departLane="best" from="-330222367#9" to="30029209#2" type="truck"/>
    <trip id="truck189" depart="764.73" departLane="best" from="-25649885#1" to="24730640#1" type="truck"/>
    <trip id="truck194" depart="784.96" departLane="best" from="-24730651#6" to="24730644#5" type="truck"/>
    <trip id="truck202" depart="817.33" departLane="best" from="-321823978#9" to="25649885#3" type="truck"/>
    <trip id="truck204" depart="825.42" departLane="best" from="-330222367#1" to="-191207584#9" type="truck"/>
    <trip id="truck206" depart="833.51" departLane="best" from="24730644#11" to="-191207584#7" type="truck"/>
    <trip id="truck208" depart="841.61" departLane="best" from="-191207584#0" to="24730642#1" type="truck"/>
    <trip id="truck209" depart="845.65" departLane="best" from="-218164910" to="102580563" type="truck"/>
    <trip id="truck210" depart="849.70" departLane="best" from="-206632633" to="-321823978#20" type="truck"/>
    <trip id="truck214" depart="865.88" departLane="best" from="-102580576#4" to="207145441" type="truck"/>
    <trip id="truck218" depart="882.07" departLane="best" from="330222367#0" to="-27768547#2" type="truck"/>
    <trip id="truck219" depart="886.12" departLane="best" from="-102580576#4" to="-24730644#9" type="truck"/>
    <trip id="truck220" depart="890.16" departLane="best" from="218164911" to="-28234118#0" type="truck"/>
    <trip id="truck223" depart="902.30" departLane="best" from="28234118#0" to="-24730644#1" type="truck"/>
    <trip id="truck225" depart="910.39" departLane="best" from="-207147909" to="-191207584#7" type="truck"/>
    <trip id="truck228" depart="922.53" departLane="best" from="-207147909" to="27768549#0" type="truck"/>
    <trip id="truck232" depart="938.72" departLane="best" from="-330222366#5" to="-321823978#15" type="truck"/>
    <trip id="truck233" depart="942.76" departLane="best" from="191207584#11" to="-30036615" type="truck"/>
    <trip id="truck235" depart="950.85" departLane="best" from="-207147909" to="330222367#3" type="truck"/>
    <trip id="truck237" depart="958.95" departLane="best" from="25649885#0" to="-331649598#1" type="truck"/>
    <trip id="truck238" depart="962.99" departLane="best" from="28233736#1" to="330222367#6" type="truck"/>
    <trip id="truck239" depart="967.04" departLane="best" from="-27768547#0" to="30029209#5" type="truck"/>
    <trip id="truck243" depart="983.22" departLane="best" from="30444184#0" to="-28404800#5" type="truck"/>
    <trip id="truck245" depart="991.32" departLane="best" from="-318477795" to="-191207584#8" type="truck"/>
    <trip id="truck246" depart="995.36" departLane="best" from="-24730644#6" to="30029209#0" type="truck"/>
    <trip id="truck249" depart="1007.50" departLane="best" from="-102580576#0" to="330222367#0" type="truck"/>
    <trip id="truck250" depart="1011.55" departLane="best" from="-207145441" to="24730651#4" type="truck"/>
    <trip id="truck255" depart="1031.78" departLane="best" from="206633608#1" to="-330222367#6" type="truck"/>
    <trip id="truck256" depart="1035.82" departLane="best" from="28234118#0" to="-30029312#7" type="truck"/>
    <trip id="truck258" depart="1043.92" departLane="best" from="-25649885#3" to="-24730644#12" type="truck"/>
    <trip id="truck259" depart="1047.96" departLane="best" from="214599085#0" to="27430119#1" type="truck"/>
    <trip id="truck261" depart="1056.06" departLane="best" from="102580576#1" to="24730651#8" type="truck"/>
    <trip id="truck264" depart="1068.19" departLane="best" from="-24730644#0" to="-191207584#11" type="truck"/>
    <trip id="truck265" depart="1072.24" departLane="best" from="214599085#0" to="-30029232#0" type="truck"/>
    <trip id="truck267" depart="1080.33" departLane="best" from="30029312#9" to="191207584#11" type="truck"/>
    <trip id="truck268" depart="1084.38" departLane="best" from="30036615" to="211260242#1" type="truck"/>
    <trip id="truck273" depart="1104.61" departLane="best" from="-206632640#1" to="-24730644#8" type="truck"/>
    <trip id="truck279" depart="1128.89" departLane="best" from="-330222367#2" to="30029312#4" type="truck"/>
    <trip id="truck287" depart="1161.26" departLane="best" from="24730647#2" to="321823978#8" type="truck"/>
    <trip id="truck290" depart="1173.39" departLane="best" from="28234118#0" to="211260242#1" type="truck"/>
    <trip id="truck291" depart="1177.44" departLane="best" from="-28234118#2" to="-24730644#14" type="truck"/>
    <trip id="truck292" depart="1181.49" departLane="best" from="330222366#4" to="191207584#5" type="truck"/>
    <trip id="truck293" depart="1185.53" departLane="best" from="131945992" to="-218164913#0" type="truck"/>
    <trip id="truck295" depart="1193.63" departLane="best" from="-207145445" to="330222367#4" type="truck"/>
    <trip id="truck300" depart="1213.86" departLane="best" from="-35572874" to="24730642#5" type="truck"/>
    <trip id="truck301" depart="1217.90" departLane="best" from="321823978#18" to="-25649885#1" type="truck"/>
    <trip id="truck302" depart="1221.95" departLane="best" from="22922908#0" to="24730640#1" type="truck"/>
    <trip id="truck303" depart="1226.00" departLane="best" from="131945992" to="-218164914#1" type="truck"/>
    <trip id="truck309" depart="1250.27" departLane="best" from="-321823978#20" to="206633608#0" type="truck"/>
    <trip id="truck312" depart="1262.41" departLane="best" from="28234118#1" to="218164915" type="truck"/>
    <trip id="truck313" depart="1266.46" departLane="best" from="28234118#3" to="-27768549#1" type="truck"/>
    <trip id="truck314" depart="1270.50" departLane="best" from="218164908#2" to="321823978#5" type="truck"/>
    <trip id="truck315" depart="1274.55" departLane="best" from="-218164908#0" to="331649598#1" type="truck"/>
    <trip id="truck317" depart="1282.64" departLane="best" from="-218164915" to="207145445" type="truck"/>
    <trip id="truck318" depart="1286.69" departLane="best" from="218164908#3" to="-24730642#0" type="truck"/>
    <trip id="truck320" depart="1294.78" departLane="best" from="-333396429" to="-24730644#10" type="truck"/>
    <trip id="truck324" depart="1310.97" departLane="best" from="218164908#3" to="-321823978#3" type="truck"/>
    <trip id="truck330" depart="1335.24" departLane="best" from="131945992" to="-24730644#7" type="truck"/>
    <trip id="truck331" depart="1339.29" departLane="best" from="218164908#3" to="207145441" type="truck"/>
    <trip id="truck332" depart="1343.33" departLane="best" from="-330222367#9" to="-30029312#10" type="truck"/>
    <trip id="truck334" depart="1351.43" departLane="best" from="28404800#3" to="-214599085#0" type="truck"/>
    <trip id="truck338" depart="1367.61" departLane="best" from="333396429" to="191207584#13" type="truck"/>
    <trip id="truck339" depart="1371.66" departLane="best" from="-191207584#13" to="191207584#7" type="truck"/>
    <trip id="truck343" depart="1387.84" departLane="best" from="27768547#0" to="-330222367#1" type="truck"/>
    <trip id="truck344" depart="1391.89" departLane="best" from="-35572872#1" to="330222367#8" type="truck"/>
    <trip id="truck346" depart="1399.98" departLane="best" from="-318477795" to="-30029312#0" type="truck"/>
    <trip id="truck350" depart="1416.17" departLane="best" from="28234118#0" to="-331649598#0" type="truck"/>
    <trip id="truck355" depart="1436.40" departLane="best" from="-218164914#0" to="207145437" type="truck"/>
    <trip id="truck359" depart="1452.58" departLane="best" from="-24730653#2" to="321823978#16" type="truck"/>
    <trip id="truck360" depart="1456.63" departLane="best" from="-218164912" to="102580563" type="truck"/>
    <trip id="truck361" depart="1460.67" departLane="best" from="-25649885#4" to="-30029209#5" type="truck"/>
    <trip id="truck362" depart="1464.72" departLane="best" from="-102580563" to="30029209#3" type="truck"/>
    <trip id="truck366" depart="1480.91" departLane="best" from="-24730644#2" to="-321823978#4" type="truck"/>
    <trip id="truck368" depart="1489.00" departLane="best" from="218164913#0" to="211260242#1" type="truck"/>
    <trip id="truck372" depart="1505.18" departLane="best" from="24730653#2" to="25649885#1" type="truck"/>
    <trip id="truck374" depart="1513.27" departLane="best" from="131945992" to="321823978#11" type="truck"/>
    <trip id="truck375" depart="1517.32" departLane="best" from="-28234118#1" to="30029209#0" type="truck"/>
    <trip id="truck381" depart="1541.60" departLane="best" from="28233736#1" to="-218164914#0" type="truck"/>
    <trip id="truck384" depart="1553.74" departLane="best" from="206633608#1" to="321823978#17" type="truck"/>
    <trip id="truck385" depart="1557.78" departLane="best" from="30029237#2" to="-30029227#0" type="truck"/>
    <trip id="truck389" depart="1573.97" departLane="best" from="330222367#6" to="30029312#4" type="truck"/>
    <trip id="truck390" depart="1578.01" departLane="best" from="330222367#6" to="30029209#3" type="truck"/>
    <trip id="truck392" depart="1586.11" departLane="best" from="-102580576#2" to="207145437" type="truck"/>
    <trip id="truck393" depart="1590.15" departLane="best" from="-330222367#8" to="24730644#14" type="truck"/>
    <trip id="truck397" depart="1606.34" departLane="best" from="-102580576#4" to="319828651#3" type="truck"/>
    <trip id="truck398" depart="1610.38" departLane="best" from="218164911" to="321823978#18" type="truck"/>
    <trip id="truck401" depart="1622.52" departLane="best" from="-30029209#1" to="-330222367#0" type="truck"/>
    <trip id="truck402" depart="1626.57" departLane="best" from="-218164910" to="330222366#6" type="truck"/>
    <trip id="truck403" depart="1630.61" departLane="best" from="-30029209#2" to="191207584#12" type="truck"/>
    <trip id="truck404" depart="1634.66" departLane="best" from="-207145445" to="319828651#4" type="truck"/>
    <trip id="truck406" depart="1642.75" departLane="best" from="102580576#3" to="-330222367#0" type="truck"/>
    <trip id="truck407" depart="1646.80" departLane="best" from="330222367#1" to="-206632633" type="truck"/>
    <trip id="truck409" depart="1654.89" departLane="best" from="330222367#1" to="30029312#11" type="truck"/>
    <trip id="truck411" depart="1662.98" departLane="best" from="-30029312#11" to="-330222366#1" type="truck"/>
    <trip id="truck413" depart="1671.08" departLane="best" from="24730647#4" to="24730642#1" type="truck"/>
    <trip id="truck414" depart="1675.12" departLane="best" from="24730642#1" to="-191207584#4" type="truck"/>
    <trip id="truck416" depart="1683.21" departLane="best" from="-218164908#2" to="207147909" type="truck"/>
    <trip id="truck419" depart="1695.35" departLane="best" from="-218164914#1" to="321823978#1" type="truck"/>
    <trip id="truck420" depart="1699.40" departLane="best" from="-102580563" to="30029312#3" type="truck"/>
    <trip id="truck421" depart="1703.45" departLane="best" from="-218164913#1" to="-24730644#18" type="truck"/>
    <trip id="truck422" depart="1707.49" departLane="best" from="-25649885#3" to="-24730653#2" type="truck"/>
    <trip id="truck424" depart="1715.58" departLane="best" from="-24730653#1" to="-30029312#11" type="truck"/>
    <trip id="truck431" depart="1743.91" departLane="best" from="30029209#1" to="30029312#9" type="truck"/>
    <trip id="truck434" depart="1756.05" departLane="best" from="-35573057" to="-330222366#4" type="truck"/>
    <trip id="truck435" depart="1760.09" departLane="best" from="24730653#2" to="191207584#10" type="truck"/>
    <trip id="truck437" depart="1768.18" departLane="best" from="-207145441" to="218164910" type="truck"/>
    <trip id="truck446" depart="1804.60" departLane="best" from="-321823978#7" to="-24730642#1" type="truck"/>
    <trip id="truck447" depart="1808.65" departLane="best" from="-330222366#4" to="24730644#10" type="truck"/>
    <trip id="truck448" depart="1812.69" departLane="best" from="-30036609" to="-24730651#0" type="truck"/>
    <trip id="truck454" depart="1836.97" departLane="best" from="-30029312#0" to="24730644#10" type="truck"/>
    <trip id="truck455" depart="1841.02" departLane="best" from="28234118#0" to="30029312#9" type="truck"/>
    <trip id="truck457" depart="1849.11" departLane="best" from="218164913#1" to="-28234118#0" type="truck"/>
    <trip id="truck461" depart="1865.29" departLane="best" from="218164913#0" to="30029209#5" type="truck"/>
    <trip id="truck464" depart="1877.43" departLane="best" from="24730644#23" to="-191207584#7" type="truck"/>
    <trip id="truck470" depart="1901.71" departLane="best" from="24730644#18" to="-191207584#9" type="truck"/>
    <trip id="truck471" depart="1905.76" departLane="best" from="-321823978#9" to="-30036615" type="truck"/>
    <trip id="truck476" depart="1925.99" departLane="best" from="28234118#0" to="-24730644#0" type="truck"/>
    <trip id="truck481" depart="1946.22" departLane="best" from="-24730644#6" to="-24730644#22" type="truck"/>
    <trip id="truck482" depart="1950.26" departLane="best" from="-102580563" to="25649885#2" type="truck"/>
    <trip id="truck483" depart="1954.31" departLane="best" from="-24730642#8" to="-321823978#20" type="truck"/>
    <trip id="truck485" depart="1962.40" departLane="best" from="-207145437" to="30029312#6" type="truck"/>
    <trip id="truck486" depart="1966.45" departLane="best" from="321823978#20" to="30029312#6" type="truck"/>
    <trip id="truck487" depart="1970.49" departLane="best" from="218164913#0" to="211260242#1" type="truck"/>
    <trip id="truck488" depart="1974.54" departLane="best" from="25649885#2" to="-330222367#2" type="truck"/>
    <trip id="truck497" depart="2010.96" departLane="best" from="-24730642#3" to="206632640#0" type="truck"/>
    <trip id="truck501" depart="2027.14" departLane="best" from="30029232#0" to="-28404800#1" type="truck"/>
    <trip id="truck502" depart="2031.19" departLane="best" from="-218164914#0" to="-27768547#1" type="truck"/>
    <trip id="truck506" depart="2047.37" departLane="best" from="218164911" to="24730640#1" type="truck"/>
    <trip id="truck507" depart="2051.42" departLane="best" from="24730644#12" to="30029312#7" type="truck"/>
    <trip id="truck510" depart="2063.56" departLane="best" from="-206633608#0" to="191207584#9" type="truck"/>
    <trip id="truck513" depart="2075.70" departLane="best" from="-207145437" to="30029312#7" type="truck"/>
    <trip id="truck520" depart="2104.02" departLane="best" from="-218164915" to="-218164908#4" type="truck"/>
    <trip id="truck522" depart="2112.11" departLane="best" from="191207584#10" to="-24730653#1" type="truck"/>
    <trip id="truck523" depart="2116.16" departLane="best" from="-25649885#1" to="-333396429" type="truck"/>
    <trip id="truck525" depart="2124.25" departLane="best" from="-24730642#0" to="-321823978#17" type="truck"/>
    <trip id="truck527" depart="2132.34" departLane="best" from="30029209#4" to="24730642#3" type="truck"/>
    <trip id="truck530" depart="2144.48" departLane="best" from="27768547#1" to="24730642#9" type="truck"/>
    <trip id="truck539" depart="2180.90" departLane="best" from="24730644#24" to="-330222367#5" type="truck"/>
    <trip id="truck540" depart="2184.94" departLane="best" from="-30029312#5" to="-321823978#10" type="truck"/>
    <trip id="truck542" depart="2193.03" departLane="best" from="330222366#6" to="191207584#0" type="truck"/>
    <trip id="truck543" depart="2197.08" departLane="best" from="-24730651#3" to="-24730644#22" type="truck"/>
    <trip id="truck545" depart="2205.17" departLane="best" from="-207147909" to="27768547#2" type="truck"/>
    <trip id="truck552" depart="2233.50" departLane="best" from="-330222367#10" to="-330222367#1" type="truck"/>
    <trip id="truck563" depart="2278.00" departLane="best" from="-25649885#2" to="24730642#1" type="truck"/>
    <trip id="truck567" depart="2294.19" departLane="best" from="28404800#0" to="-30029232#0" type="truck"/>
    <trip id="truck568" depart="2298.24" departLane="best" from="-330222367#10" to="330222366#6" type="truck"/>
    <trip id="truck574" depart="2322.51" departLane="best" from="-218164910" to="24730647#2" type="truck"/>
    <trip id="truck576" depart="2330.60" departLane="best" from="-207145437" to="-30029209#5" type="truck"/>
    <trip id="truck581" depart="2350.84" departLane="best" from="-24730653#3" to="-24730644#5" type="truck"/>
    <trip id="truck583" depart="2358.93" departLane="best" from="-24730653#2" to="-330222367#12" type="truck"/>
    <trip id="truck589" depart="2383.21" departLane="best" from="-25649885#4" to="-191207584#12" type="truck"/>
    <trip id="truck592" depart="2395.34" departLane="best" from="-30029237#2" to="-214599085#0" type="truck"/>
    <trip id="truck597" depart="2415.57" departLane="best" from="-191207584#4" to="321823978#8" type="truck"/>
    <trip id="truck600" depart="2427.71" departLane="best" from="28234118#0" to="-25649885#5" type="truck"/>
    <trip id="truck602" depart="2435.81" departLane="best" from="-218164908#2" to="-321823978#14" type="truck"/>
    <trip id="truck603" depart="2439.85" departLane="best" from="318477798#3" to="25649885#1" type="truck"/>
    <trip id="truck605" depart="2447.94" departLane="best" from="331649598#1" to="191207584#2" type="truck"/>
    <trip id="truck606" depart="2451.99" departLane="best" from="131945992" to="321823978#3" type="truck"/>
    <trip id="truck609" depart="2464.13" departLane="best" from="218164908#0" to="-30029312#10" type="truck"/>
    <trip id="truck610" depart="2468.18" departLane="best" from="-207145437" to="24730644#0" type="truck"/>
    <trip id="truck615" depart="2488.41" departLane="best" from="333396429" to="330222367#0" type="truck"/>
    <trip id="truck616" depart="2492.45" departLane="best" from="-30029312#6" to="30029209#1" type="truck"/>
    <trip id="truck617" depart="2496.50" departLane="best" from="30029209#0" to="-206632640#1" type="truck"/>
    <trip id="truck619" depart="2504.59" departLane="best" from="-30029312#7" to="-321823978#3" type="truck"/>
    <trip id="truck620" depart="2508.64" departLane="best" from="24730651#8" to="330222367#0" type="truck"/>
    <trip id="truck622" depart="2516.73" departLane="best" from="218164913#0" to="207145437" type="truck"/>
    <trip id="truck623" depart="2520.78" departLane="best" from="-321823978#17" to="24730642#4" type="truck"/>
    <trip id="truck624" depart="2524.82" departLane="best" from="28233736#2" to="191207584#4" type="truck"/>
    <trip id="truck626" depart="2532.91" departLane="best" from="-27430119#1" to="-30029227#0" type="truck"/>
    <trip id="truck627" depart="2536.96" departLane="best" from="-28234118#1" to="321823978#18" type="truck"/>
    <trip id="truck628" depart="2541.01" departLane="best" from="131945992" to="-24730644#13" type="truck"/>
    <trip id="truck631" depart="2553.15" departLane="best" from="-207145441" to="24730644#2" type="truck"/>
    <trip id="truck634" depart="2565.28" departLane="best" from="321823978#4" to="24730640#1" type="truck"/>
    <trip id="truck636" depart="2573.38" departLane="best" from="-218164908#0" to="-27768549#0" type="truck"/>
    <trip id="truck638" depart="2581.47" departLane="best" from="-102580576#4" to="207145445" type="truck"/>
    <trip id="truck640" depart="2589.56" departLane="best" from="95641233" to="24730651#4" type="truck"/>
    <trip id="truck642" depart="2597.65" departLane="best" from="330222367#9" to="24730642#1" type="truck"/>
    <trip id="truck643" depart="2601.70" departLane="best" from="-330222367#6" to="24730644#19" type="truck"/>
    <trip id="truck645" depart="2609.79" departLane="best" from="30029209#0" to="24730642#0" type="truck"/>
    <trip id="truck646" depart="2613.84" departLane="best" from="-330222367#0" to="321823978#15" type="truck"/>
    <trip id="truck647" depart="2617.88" departLane="best" from="-206632640#1" to="-24730644#14" type="truck"/>
    <trip id="truck648" depart="2621.93" departLane="best" from="-218164915" to="-24730651#6" type="truck"/>
    <trip id="truck652" depart="2638.12" departLane="best" from="-25649885#3" to="24730640#1" type="truck"/>
    <trip id="truck654" depart="2646.21" departLane="best" from="330222366#3" to="-24730651#0" type="truck"/>
    <trip id="truck658" depart="2662.39" departLane="best" from="24730644#22" to="211260242#1" type="truck"/>
    <trip id="truck659" depart="2666.44" departLane="best" from="-321823978#7" to="24730640#1" type="truck"/>
    <trip id="truck660" depart="2670.48" departLane="best" from="131945992" to="218164915" type="truck"/>
    <trip id="truck661" depart="2674.53" departLane="best" from="-28234119" to="330222367#12" type="truck"/>
    <trip id="truck662" depart="2678.58" departLane="best" from="102580576#0" to="30029209#3" type="truck"/>
    <trip id="truck664" depart="2686.67" departLane="best" from="-207145437" to="-218164908#3" type="truck"/>
    <trip id="truck668" depart="2702.85" departLane="best" from="28233736#1" to="30029312#4" type="truck"/>
    <trip id="truck675" depart="2731.18" departLane="best" from="-24730642#0" to="-30029312#5" type="truck"/>
    <trip id="truck678" depart="2743.32" departLane="best" from="330222366#5" to="191207584#8" type="truck"/>
    <trip id="truck681" depart="2755.45" departLane="best" from="131945992" to="319828651#2" type="truck"/>
    <trip id="truck683" depart="2763.55" departLane="best" from="-330222366#6" to="319828651#2" type="truck"/>
    <trip id="truck685" depart="2771.64" departLane="best" from="-30029312#7" to="-330222366#3" type="truck"/>
    <trip id="truck688" depart="2783.78" departLane="best" from="-28233736#0" to="35573057" type="truck"/>
    <trip id="truck689" depart="2787.82" departLane="best" from="24730651#8" to="-24730644#11" type="truck"/>
    <trip id="truck690" depart="2791.87" departLane="best" from="331649598#1" to="-321823978#9" type="truck"/>
    <trip id="truck694" depart="2808.06" departLane="best" from="-218164910" to="-30029312#8" type="truck"/>
    <trip id="truck695" depart="2812.10" departLane="best" from="24730642#5" to="206633608#1" type="truck"/>
    <trip id="truck700" depart="2832.33" departLane="best" from="-28404800#5" to="30029232#1" type="truck"/>
    <trip id="truck701" depart="2836.38" departLane="best" from="-30029312#8" to="24730644#15" type="truck"/>