<?xml version="1.0" encoding="UTF-8"?>
<!-- generated on 2018-10-15 11:34:30.230369 by $Id$
  options: 
-->
<routes xmlns:xsi="http://www.w3.org/2001/XMLSchema-instance" xsi:noNamespaceSchemaLocation="http://sumo.dlr.de/xsd/routes_file.xsd">
    <vType id="pedestrian" vClass="pedestrian" speedDev="0.1"/>
    <person id="ped0" depart="0.00">
        <personTrip from="28404777#1" to="-191207584#12" modes="public"/>
    </person>
    <person id="ped1" depart="2.18">
        <personTrip from="-30029237#1" to="-30025543#0" modes="public"/>
    </person>
    <person id="ped2" depart="4.35">
        <personTrip from="30025545" to="30024675#2" modes="public"/>
    </person>
    <person id="ped3" depart="6.53">
        <personTrip from="318477185#2" to="-24730642#9" modes="public"/>
    </person>
    <person id="ped4" depart="8.71">
        <personTrip from="-330222367#12" to="-191207584#5" modes="public"/>
    </person>
    <person id="ped5" depart="10.88">
        <personTrip from="-30025539#1" to="205881348" modes="public"/>
    </person>
    <person id="ped6" depart="13.06">
        <personTrip from="-191207584#13" to="-30024708" modes="public"/>
    </person>
    <person id="ped7" depart="15.24">
        <personTrip from="28404787#0" to="218164913#0" modes="public"/>
    </person>
    <person id="ped8" depart="17.41">
        <personTrip from="-30025540" to="24730647#4" modes="public"/>
    </person>
    <person id="ped9" depart="19.59">
        <personTrip from="30029312#0" to="-102580576#4" modes="public"/>
    </person>
    <person id="ped10" depart="21.77">
        <personTrip from="30029304" to="30024692#0" modes="public"/>
    </person>
    <person id="ped11" depart="23.94">
        <personTrip from="-30036611" to="-28404800#2" modes="public"/>
    </person>
    <person id="ped12" depart="26.12">
        <personTrip from="334830928" to="-30036608" modes="public"/>
    </person>
    <person id="ped13" depart="28.29">
        <personTrip from="-24730644#12" to="-24730644#17" modes="public"/>
    </person>
    <person id="ped14" depart="30.47">
        <personTrip from="30036607#0" to="24730653#3" modes="public"/>
    </person>
    <person id="ped15" depart="32.65">
        <personTrip from="30029309#0" to="30025543#0" modes="public"/>
    </person>
    <person id="ped16" depart="34.82">
        <personTrip from="218164908#0" to="376635752#1" modes="public"/>
    </person>
    <person id="ped17" depart="37.00">
        <personTrip from="-318477185#1" to="24730640#1" modes="public"/>
    </person>
    <person id="ped18" depart="39.18">
        <personTrip from="30029358" to="27369335" modes="public"/>
    </person>
    <person id="ped19" depart="41.35">
        <personTrip from="30037016#0" to="24730644#22" modes="public"/>
    </person>
    <person id="ped20" depart="43.53">
        <personTrip from="30024706" to="-206632634#0" modes="public"/>
    </person>
    <person id="ped21" depart="45.71">
        <personTrip from="-30025545" to="-30029294#1" modes="public"/>
    </person>
    <person id="ped22" depart="47.88">
        <personTrip from="-24730642#1" to="-30025550" modes="public"/>
    </person>
    <person id="ped23" depart="50.06">
        <personTrip from="-24730644#22" to="-30029256#0" modes="public"/>
    </person>
    <person id="ped24" depart="52.24">
        <personTrip from="28234118#1" to="-30037409#0" modes="public"/>
    </person>
    <person id="ped25" depart="54.41">
        <personTrip from="-30038533#0" to="-30025004" modes="public"/>
    </person>
    <person id="ped26" depart="56.59">
        <personTrip from="-30029227#3" to="330222367#0" modes="public"/>
    </person>
    <person id="ped27" depart="58.77">
        <personTrip from="28404785" to="25649885#0" modes="public"/>
    </person>
    <person id="ped28" depart="60.94">
        <personTrip from="-30024676#0" to="30025542" modes="public"/>
    </person>
    <person id="ped29" depart="63.12">
        <personTrip from="-28404805#5" to="-318477186#0" modes="public"/>
    </person>
    <person id="ped30" depart="65.30">
        <personTrip from="53083562" to="28404777#2" modes="public"/>
    </person>
    <person id="ped31" depart="67.47">
        <personTrip from="24730642#3" to="30024678#1" modes="public"/>
    </person>
    <person id="ped32" depart="69.65">
        <personTrip from="30036363#1" to="30029232#0" modes="public"/>
    </person>
    <person id="ped33" depart="71.83">
        <personTrip from="-30025546" to="-191207584#9" modes="public"/>
    </person>
    <person id="ped34" depart="74.00">
        <personTrip from="-30029356#0" to="-30029232#0" modes="public"/>
    </person>
    <person id="ped35" depart="76.18">
        <personTrip from="-30025006#1" to="330222367#3" modes="public"/>
    </person>
    <person id="ped36" depart="78.35">
        <personTrip from="30037409#0" to="-30029354#1" modes="public"/>
    </person>
    <person id="ped37" depart="80.53">
        <personTrip from="28404788#3" to="-321823978#12" modes="public"/>
    </person>
    <person id="ped38" depart="82.71">
        <personTrip from="321823978#15" to="-52919323" modes="public"/>
    </person>
    <person id="ped39" depart="84.88">
        <personTrip from="-30029227#1" to="-30029203#0" modes="public"/>
    </person>
    <person id="ped40" depart="87.06">
        <personTrip from="24730642#8" to="-30029219" modes="public"/>
    </person>
    <person id="ped41" depart="89.24">
        <personTrip from="24730644#8" to="318477798#0" modes="public"/>
    </person>
    <person id="ped42" depart="91.41">
        <personTrip from="-321823978#17" to="-30025539#1" modes="public"/>
    </person>
    <person id="ped43" depart="93.59">
        <personTrip from="83912881" to="206411211#0" modes="public"/>
    </person>
    <person id="ped44" depart="95.77">
        <personTrip from="-24730644#11" to="-206632637#0" modes="public"/>
    </person>
    <person id="ped45" depart="97.94">
        <personTrip from="-24730648" to="27768610#1" modes="public"/>
    </person>
    <person id="ped46" depart="100.12">
        <personTrip from="30029287" to="-330222367#2" modes="public"/>
    </person>
    <person id="ped47" depart="102.30">
        <personTrip from="-214599085#2" to="-318477188" modes="public"/>
    </person>
    <person id="ped48" depart="104.47">
        <personTrip from="626273507" to="207145445" modes="public"/>
    </person>
    <person id="ped49" depart="106.65">
        <personTrip from="376635750#2" to="30036681" modes="public"/>
    </person>
    <person id="ped50" depart="108.83">
        <personTrip from="-155204887#1" to="30025536#0" modes="public"/>
    </person>
    <person id="ped51" depart="111.00">
        <personTrip from="30024677#1" to="218164908#1" modes="public"/>
    </person>
    <person id="ped52" depart="113.18">
        <personTrip from="-30029227#3" to="28404777#3" modes="public"/>
    </person>
    <person id="ped53" depart="115.36">
        <personTrip from="-24730651#1" to="-333396428" modes="public"/>
    </person>
    <person id="ped54" depart="117.53">
        <personTrip from="-52919316#1" to="333394468" modes="public"/>
    </person>
    <person id="ped55" depart="119.71">
        <personTrip from="30037184" to="-30029219" modes="public"/>
    </person>
    <person id="ped56" depart="121.88">
        <personTrip from="204781441#0" to="-30024681#2" modes="public"/>
    </person>
    <person id="ped57" depart="124.06">
        <personTrip from="321823978#12" to="30037056" modes="public"/>
    </person>
    <person id="ped58" depart="126.24">
        <personTrip from="-30029309#0" to="28404777#1" modes="public"/>
    </person>
    <person id="ped59" depart="128.41">
        <personTrip from="25649885#0" to="-28404800#0" modes="public"/>
    </person>
    <person id="ped60" depart="130.59">
        <personTrip from="30029209#2" to="218164908#3" modes="public"/>
    </person>
    <person id="ped61" depart="132.77">
        <personTrip from="30029232#3" to="207147909" modes="public"/>
    </person>
    <person id="ped62" depart="134.94">
        <personTrip from="-102580563" to="-30029361#4" modes="public"/>
    </person>
    <person id="ped63" depart="137.12">
        <personTrip from="-155204894#0" to="326756961" modes="public"/>
    </person>
    <person id="ped64" depart="139.30">
        <personTrip from="30038517" to="30029360" modes="public"/>
    </person>
    <person id="ped65" depart="141.47">
        <personTrip from="-30029312#6" to="-207145445" modes="public"/>
    </person>
    <person id="ped66" depart="143.65">
        <personTrip from="30037409#1" to="330222367#7" modes="public"/>
    </person>
    <person id="ped67" depart="145.83">
        <personTrip from="-24730642#6" to="191207584#10" modes="public"/>
    </person>
    <person id="ped68" depart="148.00">
        <personTrip from="-218164908#5" to="30029209#0" modes="public"/>
    </person>
    <person id="ped69" depart="150.18">
        <personTrip from="30029209#5" to="-25649885#4" modes="public"/>
    </person>
    <person id="ped70" depart="152.36">
        <personTrip from="155204888#1" to="218164915" modes="public"/>
    </person>
    <person id="ped71" depart="154.53">
        <personTrip from="-30029227#1" to="30037060" modes="public"/>
    </person>
    <person id="ped72" depart="156.71">
        <personTrip from="-330222367#2" to="-30025006#2" modes="public"/>
    </person>
    <person id="ped73" depart="158.89">
        <personTrip from="218164908#3" to="30025543#0" modes="public"/>
    </person>
    <person id="ped74" depart="161.06">
        <personTrip from="-30024711" to="-30029316" modes="public"/>
    </person>
    <person id="ped75" depart="163.24">
        <personTrip from="626273506" to="28404787#0" modes="public"/>
    </person>
    <person id="ped76" depart="165.42">
        <personTrip from="-334830929#0" to="206632636" modes="public"/>
    </person>
    <person id="ped77" depart="167.59">
        <personTrip from="-24730653#2" to="-30025543#2" modes="public"/>
    </person>
    <person id="ped78" depart="169.77">
        <personTrip from="-30036609" to="24730647#2" modes="public"/>
    </person>
    <person id="ped79" depart="171.94">
        <personTrip from="-30025547" to="-30025540" modes="public"/>
    </person>
    <person id="ped80" depart="174.12">
        <personTrip from="-218164911" to="28233736#1" modes="public"/>
    </person>
    <person id="ped81" depart="176.30">
        <personTrip from="-30025546" to="320378786" modes="public"/>
    </person>
    <person id="ped82" depart="178.47">
        <personTrip from="30036621" to="-218164910" modes="public"/>
    </person>
    <person id="ped83" depart="180.65">
        <personTrip from="-30026974#0" to="28404805#3" modes="public"/>
    </person>
    <person id="ped84" depart="182.83">
        <personTrip from="-30025536#0" to="-27430119#0" modes="public"/>
    </person>
    <person id="ped85" depart="185.00">
        <personTrip from="330222366#6" to="24730644#15" modes="public"/>
    </person>
    <person id="ped86" depart="187.18">
        <personTrip from="155204887#0" to="30029251" modes="public"/>
    </person>
    <person id="ped87" depart="189.36">
        <personTrip from="30029309#1" to="-30024690#1" modes="public"/>
    </person>
    <person id="ped88" depart="191.53">
        <personTrip from="-24730644#18" to="-331649598#0" modes="public"/>
    </person>
    <person id="ped89" depart="193.71">
        <personTrip from="-330222367#3" to="102580576#2" modes="public"/>
    </person>
    <person id="ped90" depart="195.89">
        <personTrip from="30025542" to="30023944" modes="public"/>
    </person>
    <person id="ped91" depart="198.06">
        <personTrip from="52919316#1" to="-24730644#19" modes="public"/>
    </person>
    <person id="ped92" depart="200.24">
        <personTrip from="-321823978#20" to="-30036610" modes="public"/>
    </person>
    <person id="ped93" depart="202.42">
        <personTrip from="30037016#0" to="-30029203#2" modes="public"/>
    </person>
    <person id="ped94" depart="204.59">
        <personTrip from="-30024690#1" to="-35573092" modes="public"/>
    </person>
    <person id="ped95" depart="206.77">
        <personTrip from="-330222367#12" to="-30029256#1" modes="public"/>
    </person>
    <person id="ped96" depart="208.95">
        <personTrip from="-30029203#4" to="321823978#5" modes="public"/>
    </person>
    <person id="ped97" depart="211.12">
        <personTrip from="-35573057" to="30037016#0" modes="public"/>
    </person>
    <person id="ped98" depart="213.30">
        <personTrip from="22922908#0" to="-206632640#0" modes="public"/>
    </person>
    <person id="ped99" depart="215.48">
        <personTrip from="95641233" to="30029361#3" modes="public"/>
    </person>
    <person id="ped100" depart="217.65">
        <personTrip from="35573092" to="321823978#8" modes="public"/>
    </person>
    <person id="ped101" depart="219.83">
        <personTrip from="30036607#1" to="-30024674" modes="public"/>
    </person>
    <person id="ped102" depart="222.00">
        <personTrip from="191207584#10" to="-30025536#0" modes="public"/>
    </person>
    <person id="ped103" depart="224.18">
        <personTrip from="-321823978#18" to="-207145445" modes="public"/>
    </person>
    <person id="ped104" depart="226.36">
        <personTrip from="-318477185#1" to="52919316#2" modes="public"/>
    </person>
    <person id="ped105" depart="228.53">
        <personTrip from="-30029227#1" to="30029237#2" modes="public"/>
    </person>
    <person id="ped106" depart="230.71">
        <personTrip from="-52919316#2" to="-330222367#2" modes="public"/>
    </person>
    <person id="ped107" depart="232.89">
        <personTrip from="334830928" to="626273506" modes="public"/>
    </person>
    <person id="ped108" depart="235.06">
        <personTrip from="24730642#10" to="30025006#1" modes="public"/>
    </person>
    <person id="ped109" depart="237.24">
        <personTrip from="-28404800#2" to="-30029302#1" modes="public"/>
    </person>
    <person id="ped110" depart="239.42">
        <personTrip from="35573092" to="24730644#24" modes="public"/>
    </person>
    <person id="ped111" depart="241.59">
        <personTrip from="218164910" to="30026975" modes="public"/>
    </person>
    <person id="ped112" depart="243.77">
        <personTrip from="-207145441" to="24730644#8" modes="public"/>
    </person>
    <person id="ped113" depart="245.95">
        <personTrip from="205878747#0" to="30036612#0" modes="public"/>
    </person>
    <person id="ped114" depart="248.12">
        <personTrip from="-28404800#4" to="335532248" modes="public"/>
    </person>
    <person id="ped115" depart="250.30">
        <personTrip from="-24730642#10" to="-30024683#4" modes="public"/>
    </person>
    <person id="ped116" depart="252.48">
        <personTrip from="24730651#3" to="30024675#0" modes="public"/>
    </person>
    <person id="ped117" depart="254.65">
        <personTrip from="-30025553#0" to="-24730653#1" modes="public"/>
    </person>
    <person id="ped118" depart="256.83">
        <personTrip from="318477185#1" to="-30029201" modes="public"/>
    </person>
    <person id="ped119" depart="259.01">
        <personTrip from="24730651#2" to="27430119#0" modes="public"/>
    </person>
    <person id="ped120" depart="261.18">
        <personTrip from="-330222367#10" to="24730644#7" modes="public"/>
    </person>
    <person id="ped121" depart="263.36">
        <personTrip from="206632640#1" to="330222366#5" modes="public"/>
    </person>
    <person id="ped122" depart="265.53">
        <personTrip from="-30024714#1" to="30025004" modes="public"/>
    </person>
    <person id="ped123" depart="267.71">
        <personTrip from="-30026974#1" to="-321823978#12" modes="public"/>
    </person>
    <person id="ped124" depart="269.89">
        <personTrip from="28404805#7" to="-30029309#1" modes="public"/>
    </person>
    <person id="ped125" depart="272.06">
        <personTrip from="-30029356#0" to="30026980#1" modes="public"/>
    </person>
    <person id="ped126" depart="274.24">
        <personTrip from="-218164912" to="-52919323" modes="public"/>
    </person>
    <person id="ped127" depart="276.42">
        <personTrip from="83912907" to="626273507" modes="public"/>
    </person>
    <person id="ped128" depart="278.59">
        <personTrip from="-218164913#0" to="-30025534" modes="public"/>
    </person>
    <person id="ped129" depart="280.77">
        <personTrip from="-30029227#1" to="330222366#4" modes="public"/>
    </person>
    <person id="ped130" depart="282.95">
        <personTrip from="30038528#1" to="30038528#0" modes="public"/>
    </person>
    <person id="ped131" depart="285.12">
        <personTrip from="-30038533#0" to="-28404800#5" modes="public"/>
    </person>
    <person id="ped132" depart="287.30">
        <personTrip from="30029361#1" to="30024704" modes="public"/>
    </person>
    <person id="ped133" depart="289.48">
        <personTrip from="25649885#2" to="52919321#1" modes="public"/>
    </person>
    <person id="ped134" depart="291.65">
        <personTrip from="28404788#2" to="-132937955#0" modes="public"/>
    </person>
    <person id="ped135" depart="293.83">
        <personTrip from="30029312#7" to="-30029309#0" modes="public"/>
    </person>
    <person id="ped136" depart="296.01">
        <personTrip from="28404800#3" to="330222367#10" modes="public"/>
    </person>
    <person id="ped137" depart="298.18">
        <personTrip from="-27768547#0" to="-24730651#4" modes="public"/>
    </person>
    <person id="ped138" depart="300.36">
        <personTrip from="-24730644#8" to="24730642#0" modes="public"/>
    </person>
    <person id="ped139" depart="302.54">
        <personTrip from="-30029232#4" to="24730725#0" modes="public"/>
    </person>
    <person id="ped140" depart="304.71">
        <personTrip from="30025006#1" to="-30024714#1" modes="public"/>
    </person>
    <person id="ped141" depart="306.89">
        <personTrip from="28234118#0" to="-30029227#0" modes="public"/>
    </person>
    <person id="ped142" depart="309.07">
        <personTrip from="191207584#13" to="320378786" modes="public"/>
    </person>
    <person id="ped143" depart="311.24">
        <personTrip from="30036364#0" to="-24730644#12" modes="public"/>
    </person>
    <person id="ped144" depart="313.42">
        <personTrip from="-330222367#3" to="-30029251" modes="public"/>
    </person>
    <person id="ped145" depart="315.59">
        <personTrip from="-102580576#1" to="30029219" modes="public"/>
    </person>
    <person id="ped146" depart="317.77">
        <personTrip from="28234118#3" to="-30029217#1" modes="public"/>
    </person>
    <person id="ped147" depart="319.95">
        <personTrip from="30025550" to="24730640#0" modes="public"/>
    </person>
    <person id="ped148" depart="322.12">
        <personTrip from="-330222367#7" to="-132942954" modes="public"/>
    </person>
    <person id="ped149" depart="324.30">
        <personTrip from="-218164914#0" to="30038533#1" modes="public"/>
    </person>
    <person id="ped150" depart="326.48">
        <personTrip from="319828651#4" to="218164913#0" modes="public"/>
    </person>
    <person id="ped151" depart="328.65">
        <personTrip from="30029361#2" to="24730644#6" modes="public"/>
    </person>
    <person id="ped152" depart="330.83">
        <personTrip from="-28234118#2" to="-25649885#3" modes="public"/>
    </person>
    <person id="ped153" depart="333.01">
        <personTrip from="-30029312#6" to="318477798#1" modes="public"/>
    </person>
    <person id="ped154" depart="335.18">
        <personTrip from="30029294#0" to="30036681" modes="public"/>
    </person>
    <person id="ped155" depart="337.36">
        <personTrip from="318477798#1" to="-30025006#0" modes="public"/>
    </person>
    <person id="ped156" depart="339.54">
        <personTrip from="-30029203#4" to="-24730644#23" modes="public"/>
    </person>
    <person id="ped157" depart="341.71">
        <personTrip from="30029232#4" to="30038533#2" modes="public"/>
    </person>
    <person id="ped158" depart="343.89">
        <personTrip from="-321823978#5" to="27430119#1" modes="public"/>
    </person>
    <person id="ped159" depart="346.07">
        <personTrip from="-28404800#1" to="326757022" modes="public"/>
    </person>
    <person id="ped160" depart="348.24">
        <personTrip from="30037053#2" to="376635753#1" modes="public"/>
    </person>
    <person id="ped161" depart="350.42">
        <personTrip from="30029312#1" to="30038533#0" modes="public"/>
    </person>
    <person id="ped162" depart="352.60">
        <personTrip from="-191207584#11" to="30025546" modes="public"/>
    </person>
    <person id="ped163" depart="354.77">
        <personTrip from="-30036363#3" to="330222366#0" modes="public"/>
    </person>
    <person id="ped164" depart="356.95">
        <personTrip from="30029300#1" to="30037053#1" modes="public"/>
    </person>
    <person id="ped165" depart="359.13">
        <personTrip from="30029312#1" to="-30029227#3" modes="public"/>
    </person>
    <person id="ped166" depart="361.30">
        <personTrip from="30029256#1" to="-24730644#9" modes="public"/>
    </person>
    <person id="ped167" depart="363.48">
        <personTrip from="30037058" to="30036616#3" modes="public"/>
    </person>
    <person id="ped168" depart="365.65">
        <personTrip from="-30025542" to="30029312#7" modes="public"/>
    </person>
    <person id="ped169" depart="367.83">
        <personTrip from="-626271197" to="-30029312#11" modes="public"/>
    </person>
    <person id="ped170" depart="370.01">
        <personTrip from="30029292#2" to="-30025545" modes="public"/>
    </person>
    <person id="ped171" depart="372.18">
        <personTrip from="-191207584#10" to="-30024695" modes="public"/>
    </person>
    <person id="ped172" depart="374.36">
        <personTrip from="-30029365" to="30037053#2" modes="public"/>
    </person>
    <person id="ped173" depart="376.54">
        <personTrip from="35573089" to="-30029256#1" modes="public"/>
    </person>
    <person id="ped174" depart="378.71">
        <personTrip from="28404777#3" to="-321823978#17" modes="public"/>
    </person>
    <person id="ped175" depart="380.89">
        <personTrip from="422923795" to="218164908#0" modes="public"/>
    </person>
    <person id="ped176" depart="383.07">
        <personTrip from="330222367#11" to="-24730651#4" modes="public"/>
    </person>
    <person id="ped177" depart="385.24">
        <personTrip from="376635750#1" to="-30024681#1" modes="public"/>
    </person>
    <person id="ped178" depart="387.42">
        <personTrip from="35572872#1" to="-30029227#1" modes="public"/>
    </person>
    <person id="ped179" depart="389.60">
        <personTrip from="-24730644#9" to="-333396428" modes="public"/>
    </person>
    <person id="ped180" depart="391.77">
        <personTrip from="30025542" to="-30029354#0" modes="public"/>
    </person>
    <person id="ped181" depart="393.95">
        <personTrip from="24730725#2" to="206412004" modes="public"/>
    </person>
    <person id="ped182" depart="396.13">
        <personTrip from="-318477190#1" to="24730644#21" modes="public"/>
    </person>
    <person id="ped183" depart="398.30">
        <personTrip from="-30029209#2" to="30024713" modes="public"/>
    </person>
    <person id="ped184" depart="400.48">
        <personTrip from="-102580565" to="321823978#7" modes="public"/>
    </person>
    <person id="ped185" depart="402.66">
        <personTrip from="218164908#2" to="30025006#2" modes="public"/>
    </person>
    <person id="ped186" depart="404.83">
        <personTrip from="30025551" to="28404805#5" modes="public"/>
    </person>
    <person id="ped187" depart="407.01">
        <personTrip from="-30037184" to="-218164910" modes="public"/>
    </person>
    <person id="ped188" depart="409.19">
        <personTrip from="28404800#4" to="-30036363#1" modes="public"/>
    </person>
    <person id="ped189" depart="411.36">
        <personTrip from="-30029354#0" to="30036607#0" modes="public"/>
    </person>
    <person id="ped190" depart="413.54">
        <personTrip from="30025534" to="-30029309#1" modes="public"/>
    </person>
    <person id="ped191" depart="415.71">
        <personTrip from="-30029312#7" to="-321823978#7" modes="public"/>
    </person>
    <person id="ped192" depart="417.89">
        <personTrip from="-321823978#20" to="-30029302#0" modes="public"/>
    </person>
    <person id="ped193" depart="420.07">
        <personTrip from="-25649885#3" to="-330222367#11" modes="public"/>
    </person>
    <person id="ped194" depart="422.24">
        <personTrip from="330222367#12" to="30024675#2" modes="public"/>
    </person>
    <person id="ped195" depart="424.42">
        <personTrip from="319828651#3" to="262239043#0" modes="public"/>
    </person>
    <person id="ped196" depart="426.60">
        <personTrip from="-30029309#2" to="218164914#1" modes="public"/>
    </person>
    <person id="ped197" depart="428.77">
        <personTrip from="-102580563" to="-30029292#2" modes="public"/>
    </person>
    <person id="ped198" depart="430.95">
        <personTrip from="-330222367#9" to="24730644#4" modes="public"/>
    </person>
    <person id="ped199" depart="433.13">
        <personTrip from="28404788#3" to="102580576#0" modes="public"/>
    </person>
    <person id="ped200" depart="435.30">
        <personTrip from="-35572874" to="-30025536#0" modes="public"/>
    </person>
    <person id="ped201" depart="437.48">
        <personTrip from="155204887#1" to="319828651#0" modes="public"/>
    </person>
    <person id="ped202" depart="439.66">
        <personTrip from="30029294#0" to="-30024675#3" modes="public"/>
    </person>
    <person id="ped203" depart="441.83">
        <personTrip from="-24730642#5" to="206632634#0" modes="public"/>
    </person>
    <person id="ped204" depart="444.01">
        <personTrip from="28233862" to="-30036607#0" modes="public"/>
    </person>
    <person id="ped205" depart="446.19">
        <personTrip from="30029312#9" to="30026979" modes="public"/>
    </person>
    <person id="ped206" depart="448.36">
        <personTrip from="30023944" to="-30025543#2" modes="public"/>
    </person>
    <person id="ped207" depart="450.54">
        <personTrip from="-30024708" to="-191207584#11" modes="public"/>
    </person>
    <person id="ped208" depart="452.72">
        <personTrip from="-30026981" to="155204888#1" modes="public"/>
    </person>
    <person id="ped209" depart="454.89">
        <personTrip from="30036608" to="-218164912" modes="public"/>
    </person>
    <person id="ped210" depart="457.07">
        <personTrip from="-330222366#4" to="28233736#0" modes="public"/>
    </person>
    <person id="ped211" depart="459.24">
        <personTrip from="-30024698" to="30024690#0" modes="public"/>
    </person>
    <person id="ped212" depart="461.42">
        <personTrip from="191207584#9" to="-30026980#1" modes="public"/>
    </person>
    <person id="ped213" depart="463.60">
        <personTrip from="28404788#4" to="-102580576#3" modes="public"/>
    </person>
    <person id="ped214" depart="465.77">
        <personTrip from="30026979" to="30029217#1" modes="public"/>
    </person>
    <person id="ped215" depart="467.95">
        <personTrip from="-24730644#7" to="-330222367#4" modes="public"/>
    </person>
    <person id="ped216" depart="470.13">
        <personTrip from="-30024678#1" to="334830928" modes="public"/>
    </person>
    <person id="ped217" depart="472.30">
        <personTrip from="206632636" to="-206632640#0" modes="public"/>
    </person>
    <person id="ped218" depart="474.48">
        <personTrip from="-30029203#2" to="30036607#1" modes="public"/>
    </person>
    <person id="ped219" depart="476.66">
        <personTrip from="-52919321#1" to="30029300#1" modes="public"/>
    </person>
    <person id="ped220" depart="478.83">
        <personTrip from="28404805#1" to="52919321#1" modes="public"/>
    </person>
    <person id="ped221" depart="481.01">
        <personTrip from="24730651#3" to="331649598#1" modes="public"/>
    </person>
    <person id="ped222" depart="483.19">
        <personTrip from="318477185#2" to="25649885#3" modes="public"/>
    </person>
    <person id="ped223" depart="485.36">
        <personTrip from="30025006#2" to="205878748" modes="public"/>
    </person>
    <person id="ped224" depart="487.54">
        <personTrip from="30029359" to="218164914#0" modes="public"/>
    </person>
    <person id="ped225" depart="489.72">
        <personTrip from="318477798#0" to="30025553#1" modes="public"/>
    </person>
    <person id="ped226" depart="491.89">
        <personTrip from="155204888#0" to="-30029210" modes="public"/>
    </person>
    <person id="ped227" depart="494.07">
        <personTrip from="-30029203#0" to="28234118#3" modes="public"/>
    </person>
    <person id="ped228" depart="496.25">
        <personTrip from="30029209#5" to="206632640#0" modes="public"/>
    </person>
    <person id="ped229" depart="498.42">
        <personTrip from="27768610#1" to="-30029237#1" modes="public"/>
    </person>
    <person id="ped230" depart="500.60">
        <personTrip from="-218164915" to="-30029292#1" modes="public"/>
    </person>
    <person id="ped231" depart="502.78">
        <personTrip from="-30029232#4" to="-30029361#0" modes="public"/>
    </person>
    <person id="ped232" depart="504.95">
        <personTrip from="218164908#4" to="-27768549#1" modes="public"/>
    </person>
    <person id="ped233" depart="507.13">
        <personTrip from="-30025548" to="30024686" modes="public"/>
    </person>
    <person id="ped234" depart="509.30">
        <personTrip from="30024708" to="-218164908#0" modes="public"/>
    </person>
    <person id="ped235" depart="511.48">