<?xml version="1.0" encoding="UTF-8"?>
<!-- generated on 2018-10-15 11:34:32.560872 by $Id$ via randomTrips.py
  options: 
-->
<routes xmlns:xsi="http://www.w3.org/2001/XMLSchema-instance" xsi:noNamespaceSchemaLocation="http://sumo.dlr.de/xsd/routes_file.xsd">
    <vType id="motorcycle" speedFactor="normc(1.00,0.10,0.20,2.00)" vClass="motorcycle">
    </vType>
    <trip id="moto0" depart="0.00" departLane="best" from="27768549#1" to="24730644#8" type="motorcycle"/>
    <trip id="moto2" depart="16.18" departLane="best" from="-191207584#11" to="-25649885#2" type="motorcycle"/>
    <trip id="moto6" depart="48.55" departLane="best" from="-30029312#11" to="-24730644#7" type="motorcycle"/>
    <trip id="moto7" depart="56.65" departLane="best" from="-218164908#1" to="-24730642#10" type="motorcycle"/>
    <trip id="moto12" depart="97.11" departLane="best" from="-207147909" to="-28234118#0" type="motorcycle"/>
    <trip id="moto14" depart="113.29" departLane="best" from="24730644#21" to="-321823978#11" type="motorcycle"/>
    <trip id="moto16" depart="129.48" departLane="best" from="-28234118#1" to="330222366#3" type="motorcycle"/>
    <trip id="moto17" depart="137.57" departLane="best" from="24730644#5" to="24730642#10" type="motorcycle"/>
    <trip id="moto18" depart="145.66" departLane="best" from="-24730644#2" to="25649885#1" type="motorcycle"/>
    <trip id="moto19" depart="153.76" departLane="best" from="-24730644#17" to="-321823978#18" type="motorcycle"/>
    <trip id="moto20" depart="161.85" departLane="best" from="218164908#5" to="24730647#4" type="motorcycle"/>
    <trip id="moto21" depart="169.94" departLane="best" from="-25649885#1" to="-191207584#7" type="motorcycle"/>
    <trip id="moto22" depart="178.03" departLane="best" from="24730644#8" to="-321823978#6" type="motorcycle"/>
    <trip id="moto24" depart="194.22" departLane="best" from="24730642#0" to="321823978#14" type="motorcycle"/>
    <trip id="moto25" depart="202.31" departLane="best" from="-218164908#0" to="-206633608#1" type="motorcycle"/>
    <trip id="moto26" depart="210.40" departLane="best" from="330222367#8" to="30036615" type="motorcycle"/>
    <trip id="moto27" depart="218.49" departLane="best" from="-28234118#1" to="24730644#13" type="motorcycle"/>
    <trip id="moto28" depart="226.59" departLane="best" from="-218164913#1" to="-330222367#4" type="motorcycle"/>
    <trip id="moto29" depart="234.68" departLane="best" from="-330222367#7" to="330222367#11" type="motorcycle"/>
    <trip id="moto30" depart="242.77" departLane="best" from="191207584#10" to="-24730651#7" type="motorcycle"/>
    <trip id="moto32" depart="258.96" departLane="best" from="24730644#0" to="-24730644#6" type="motorcycle"/>
    <trip id="moto34" depart="275.14" departLane="best" from="-191207584#0" to="321823978#9" type="motorcycle"/>
    <trip id="moto36" depart="291.33" departLane="best" from="-207145441" to="28233736#0" type="motorcycle"/>
    <trip id="moto37" depart="299.42" departLane="best" from="-35572874" to="207147909" type="motorcycle"/>
    <trip id="moto38" depart="307.51" departLane="best" from="-28233736#2" to="319828651#0" type="motorcycle"/>
    <trip id="moto40" depart="323.70" departLane="best" from="35572872#0" to="24730644#18" type="motorcycle"/>
    <trip id="moto41" depart="331.79" departLane="best" from="-330222367#12" to="206632633" type="motorcycle"/>
    <trip id="moto43" depart="347.97" departLane="best" from="-25649885#2" to="-27768549#0" type="motorcycle"/>
    <trip id="moto44" depart="356.06" departLane="best" from="-25649885#1" to="321823978#17" type="motorcycle"/>
    <trip id="moto46" depart="372.25" departLane="best" from="-25649885#5" to="24730644#5" type="motorcycle"/>
    <trip id="moto47" depart="380.34" departLane="best" from="-24730653#0" to="-24730644#17" type="motorcycle"/>
    <trip id="moto51" depart="412.71" departLane="best" from="-218164908#3" to="-330222367#3" type="motorcycle"/>
    <trip id="moto53" depart="428.90" departLane="best" from="27768547#0" to="24730644#7" type="motorcycle"/>
    <trip id="moto56" depart="453.17" departLane="best" from="-24730644#8" to="-331649598#0" type="motorcycle"/>
    <trip id="moto58" depart="469.36" departLane="best" from="-27768547#0" to="321823978#6" type="motorcycle"/>
    <trip id="moto59" depart="477.45" departLane="best" from="-330222367#3" to="30036615" type="motorcycle"/>
    <trip id="moto61" depart="493.64" departLane="best" from="330222367#7" to="321823978#8" type="motorcycle"/>
    <trip id="moto62" depart="501.73" departLane="best" from="30029312#6" to="-24730651#10" type="motorcycle"/>
    <trip id="moto63" depart="509.82" departLane="best" from="102580576#1" to="-27768547#0" type="motorcycle"/>
    <trip id="moto66" depart="534.10" departLane="best" from="-330222367#8" to="-330222367#10" type="motorcycle"/>
    <trip id="moto68" depart="550.28" departLane="best" from="218164908#5" to="24730653#4" type="motorcycle"/>
    <trip id="moto70" depart="566.47" departLane="best" from="214599085#1" to="27430119#1" type="motorcycle"/>
    <trip id="moto72" depart="582.65" departLane="best" from="191207584#11" to="30029312#8" type="motorcycle"/>
    <trip id="moto73" depart="590.74" departLane="best" from="-24730644#13" to="330222367#3" type="motorcycle"/>
    <trip id="moto74" depart="598.84" departLane="best" from="-207147909" to="-24730653#1" type="motorcycle"/>
    <trip id="moto75" depart="606.93" departLane="best" from="24730642#4" to="24730644#8" type="motorcycle"/>
    <trip id="moto76" depart="615.02" departLane="best" from="-25649885#4" to="-24730644#11" type="motorcycle"/>
    <trip id="moto77" depart="623.11" departLane="best" from="24730642#4" to="24730642#5" type="motorcycle"/>
    <trip id="moto79" depart="639.30" departLane="best" from="-27369330#0" to="-321823978#6" type="motorcycle"/>
    <trip id="moto81" depart="655.48" departLane="best" from="-28233736#2" to="330222366#1" type="motorcycle"/>
    <trip id="moto82" depart="663.58" departLane="best" from="319828651#3" to="319828651#4" type="motorcycle"/>
    <trip id="moto83" depart="671.67" departLane="best" from="-321823978#0" to="-24730644#8" type="motorcycle"/>
    <trip id="moto87" depart="704.04" departLane="best" from="30029236" to="-30029236" type="motorcycle"/>
    <trip id="moto88" depart="712.13" departLane="best" from="-28234119" to="24730642#0" type="motorcycle"/>
    <trip id="moto89" depart="720.22" departLane="best" from="25649885#3" to="-25649885#4" type="motorcycle"/>
    <trip id="moto90" depart="728.31" departLane="best" from="24730644#2" to="-30029209#2" type="motorcycle"/>
    <trip id="moto91" depart="736.41" departLane="best" from="102580576#2" to="321823978#17" type="motorcycle"/>
    <trip id="moto93" depart="752.59" departLane="best" from="-102580563" to="28234118#2" type="motorcycle"/>
    <trip id="moto94" depart="760.68" departLane="best" from="28233736#1" to="207147909" type="motorcycle"/>
    <trip id="moto95" depart="768.78" departLane="best" from="-207145445" to="319828651#5" type="motorcycle"/>
    <trip id="moto96" depart="776.87" departLane="best" from="-24730644#1" to="-24730644#14" type="motorcycle"/>
    <trip id="moto99" depart="801.15" departLane="best" from="-27768547#0" to="-24730642#4" type="motorcycle"/>
    <trip id="moto100" depart="809.24" departLane="best" from="-321823978#6" to="24730642#6" type="motorcycle"/>
    <trip id="moto101" depart="817.33" departLane="best" from="-24730644#12" to="321823978#9" type="motorcycle"/>
    <trip id="moto103" depart="833.51" departLane="best" from="-191207584#10" to="25649885#4" type="motorcycle"/>
    <trip id="moto105" depart="849.70" departLane="best" from="318477798#1" to="30036609" type="motorcycle"/>
    <trip id="moto109" depart="882.07" departLane="best" from="24730644#23" to="-321823978#8" type="motorcycle"/>
    <trip id="moto111" depart="898.25" departLane="best" from="330222367#8" to="-24730651#7" type="motorcycle"/>
    <trip id="moto112" depart="906.35" departLane="best" from="-218164912" to="-330222367#4" type="motorcycle"/>
    <trip id="moto115" depart="930.62" departLane="best" from="-27768549#0" to="24730653#0" type="motorcycle"/>
    <trip id="moto116" depart="938.72" departLane="best" from="-102580563" to="321823978#7" type="motorcycle"/>
    <trip id="moto117" depart="946.81" departLane="best" from="24730647#4" to="-30029312#6" type="motorcycle"/>
    <trip id="moto119" depart="962.99" departLane="best" from="-24730642#10" to="-330222367#1" type="motorcycle"/>
    <trip id="moto120" depart="971.09" departLane="best" from="330222366#4" to="24730644#8" type="motorcycle"/>
    <trip id="moto121" depart="979.18" departLane="best" from="321823978#16" to="24730642#4" type="motorcycle"/>
    <trip id="moto125" depart="1011.55" departLane="best" from="-330222367#2" to="-27768547#0" type="motorcycle"/>
    <trip id="moto126" depart="1019.64" departLane="best" from="-35572872#1" to="321823978#16" type="motorcycle"/>
    <trip id="moto129" depart="1043.92" departLane="best" from="-24730651#10" to="-191207584#2" type="motorcycle"/>
    <trip id="moto131" depart="1060.10" departLane="best" from="-321823978#9" to="24730644#0" type="motorcycle"/>
    <trip id="moto132" depart="1068.19" departLane="best" from="-24730651#0" to="24730651#3" type="motorcycle"/>
    <trip id="moto134" depart="1084.38" departLane="best" from="28234118#0" to="28234118#2" type="motorcycle"/>
    <trip id="moto135" depart="1092.47" departLane="best" from="-218164910" to="-330222367#11" type="motorcycle"/>
    <trip id="moto136" depart="1100.56" departLane="best" from="-24730644#22" to="330222367#2" type="motorcycle"/>
    <trip id="moto138" depart="1116.75" departLane="best" from="-27768547#0" to="30029312#6" type="motorcycle"/>
    <trip id="moto141" depart="1141.03" departLane="best" from="321823978#10" to="24730642#2" type="motorcycle"/>
    <trip id="moto142" depart="1149.12" departLane="best" from="25649885#4" to="191207584#4" type="motorcycle"/>
    <trip id="moto143" depart="1157.21" departLane="best" from="-25649885#2" to="24730651#2" type="motorcycle"/>
    <trip id="moto145" depart="1173.39" departLane="best" from="-330222366#3" to="321823978#17" type="motorcycle"/>
    <trip id="moto147" depart="1189.58" departLane="best" from="-30029312#8" to="27768547#2" type="motorcycle"/>
    <trip id="moto148" depart="1197.67" departLane="best" from="30029312#8" to="330222367#11" type="motorcycle"/>
    <trip id="moto149" depart="1205.76" departLane="best" from="-24730653#3" to="-27768549#0" type="motorcycle"/>
    <trip id="moto150" depart="1213.86" departLane="best" from="-330222367#11" to="-191207584#5" type="motorcycle"/>
    <trip id="moto151" depart="1221.95" departLane="best" from="-30029312#1" to="24730644#9" type="motorcycle"/>
    <trip id="moto152" depart="1230.04" departLane="best" from="-321823978#5" to="-24730651#1" type="motorcycle"/>
    <trip id="moto153" depart="1238.13" departLane="best" from="24730644#14" to="-191207584#4" type="motorcycle"/>
    <trip id="moto154" depart="1246.23" departLane="best" from="-206632640#0" to="-321823978#18" type="motorcycle"/>
    <trip id="moto155" depart="1254.32" departLane="best" from="-24730651#8" to="-30029312#3" type="motorcycle"/>
    <trip id="moto157" depart="1270.50" departLane="best" from="24730644#7" to="27768547#2" type="motorcycle"/>
    <trip id="moto158" depart="1278.60" departLane="best" from="330222367#10" to="-25649885#2" type="motorcycle"/>
    <trip id="moto159" depart="1286.69" departLane="best" from="-191207584#0" to="-24730644#6" type="motorcycle"/>
    <trip id="moto160" depart="1294.78" departLane="best" from="-24730642#10" to="24730644#5" type="motorcycle"/>
    <trip id="moto161" depart="1302.87" departLane="best" from="218164912" to="-27768547#2" type="motorcycle"/>
    <trip id="moto163" depart="1319.06" departLane="best" from="-24730644#19" to="24730642#1" type="motorcycle"/>
    <trip id="moto165" depart="1335.24" departLane="best" from="-218164912" to="-191207584#4" type="motorcycle"/>
    <trip id="moto166" depart="1343.33" departLane="best" from="330222367#2" to="-321823978#7" type="motorcycle"/>
    <trip id="moto168" depart="1359.52" departLane="best" from="-330222366#6" to="-321823978#14" type="motorcycle"/>
    <trip id="moto169" depart="1367.61" departLane="best" from="-218164910" to="330222367#3" type="motorcycle"/>
    <trip id="moto171" depart="1383.80" departLane="best" from="27768547#2" to="330222367#6" type="motorcycle"/>
    <trip id="moto172" depart="1391.89" departLane="best" from="-330222367#10" to="25649885#2" type="motorcycle"/>
    <trip id="moto173" depart="1399.98" departLane="best" from="-333396429" to="24730642#10" type="motorcycle"/>
    <trip id="moto174" depart="1408.07" departLane="best" from="-321823978#12" to="-191207584#5" type="motorcycle"/>
    <trip id="moto175" depart="1416.17" departLane="best" from="30029312#7" to="-24730651#8" type="motorcycle"/>
    <trip id="moto176" depart="1424.26" departLane="best" from="-24730651#8" to="30029209#5" type="motorcycle"/>
    <trip id="moto177" depart="1432.35" departLane="best" from="-102580576#2" to="330222367#1" type="motorcycle"/>
    <trip id="moto178" depart="1440.44" departLane="best" from="102580576#3" to="27768549#1" type="motorcycle"/>
    <trip id="moto179" depart="1448.54" departLane="best" from="24730653#2" to="24730644#15" type="motorcycle"/>
    <trip id="moto180" depart="1456.63" departLane="best" from="102580576#3" to="30029209#3" type="motorcycle"/>
    <trip id="moto183" depart="1480.91" departLane="best" from="206633608#0" to="-330222367#11" type="motorcycle"/>
    <trip id="moto184" depart="1489.00" departLane="best" from="-27768547#1" to="-24730644#11" type="motorcycle"/>
    <trip id="moto185" depart="1497.09" departLane="best" from="-24730644#9" to="-24730644#10" type="motorcycle"/>
    <trip id="moto186" depart="1505.18" departLane="best" from="-24730644#6" to="-27768547#1" type="motorcycle"/>
    <trip id="moto188" depart="1521.37" departLane="best" from="-24730644#4" to="-191207584#10" type="motorcycle"/>
    <trip id="moto192" depart="1553.74" departLane="best" from="-206633608#0" to="-24730644#4" type="motorcycle"/>
    <trip id="moto193" depart="1561.83" departLane="best" from="35572872#0" to="-24730644#10" type="motorcycle"/>
    <trip id="moto194" depart="1569.92" departLane="best" from="-330222367#3" to="30036615" type="motorcycle"/>
    <trip id="moto195" depart="1578.01" departLane="best" from="24730644#13" to="24730642#10" type="motorcycle"/>
    <trip id="moto196" depart="1586.11" departLane="best" from="28233736#0" to="330222367#1" type="motorcycle"/>
    <trip id="moto197" depart="1594.20" departLane="best" from="24730647#1" to="-24730644#8" type="motorcycle"/>
    <trip id="moto199" depart="1610.38" departLane="best" from="-102580563" to="-331649598#1" type="motorcycle"/>
    <trip id="moto201" depart="1626.57" departLane="best" from="-25649885#2" to="24730651#8" type="motorcycle"/>
    <trip id="moto202" depart="1634.66" departLane="best" from="24730653#0" to="321823978#6" type="motorcycle"/>
    <trip id="moto204" depart="1650.85" departLane="best" from="24730644#5" to="321823978#2" type="motorcycle"/>
    <trip id="moto205" depart="1658.94" departLane="best" from="24730653#1" to="24730651#4" type="motorcycle"/>
    <trip id="moto206" depart="1667.03" departLane="best" from="-30029237#2" to="-28404800#2" type="motorcycle"/>
    <trip id="moto207" depart="1675.12" departLane="best" from="-218164908#0" to="330222367#4" type="motorcycle"/>
    <trip id="moto209" depart="1691.31" departLane="best" from="24730651#2" to="-30029209#4" type="motorcycle"/>
    <trip id="moto210" depart="1699.40" departLane="best" from="-191207584#7" to="27768549#0" type="motorcycle"/>
    <trip id="moto211" depart="1707.49" departLane="best" from="-35572872#0" to="24730644#18" type="motorcycle"/>
    <trip id="moto212" depart="1715.58" departLane="best" from="24730642#1" to="24730644#10" type="motorcycle"/>
    <trip id="moto213" depart="1723.68" departLane="best" from="131945992" to="-24730642#0" type="motorcycle"/>
    <trip id="moto214" depart="1731.77" departLane="best" from="-30029312#6" to="-30029312#7" type="motorcycle"/>
    <trip id="moto217" depart="1756.05" departLane="best" from="-24730644#7" to="-321823978#10" type="motorcycle"/>
    <trip id="moto218" depart="1764.14" departLane="best" from="28234118#1" to="24730642#9" type="motorcycle"/>
    <trip id="moto219" depart="1772.23" departLane="best" from="218164908#2" to="321823978#8" type="motorcycle"/>
    <trip id="moto220" depart="1780.32" departLane="best" from="-330222367#12" to="24730651#4" type="motorcycle"/>
    <trip id="moto222" depart="1796.51" departLane="best" from="218164908#3" to="-24730642#1" type="motorcycle"/>
    <trip id="moto225" depart="1820.79" departLane="best" from="25649885#3" to="191207584#5" type="motorcycle"/>
    <trip id="moto226" depart="1828.88" departLane="best" from="218164908#3" to="-321823978#20" type="motorcycle"/>
    <trip id="moto228" depart="1845.06" departLane="best" from="-321823978#9" to="330222366#1" type="motorcycle"/>
    <trip id="moto229" depart="1853.15" departLane="best" from="-28404800#5" to="-30029236" type="motorcycle"/>
    <trip id="moto231" depart="1869.34" departLane="best" from="102580576#3" to="-24730644#4" type="motorcycle"/>
    <trip id="moto232" depart="1877.43" departLane="best" from="218164908#3" to="207145441" type="motorcycle"/>
    <trip id="moto233" depart="1885.52" departLane="best" from="-330222367#8" to="-30029312#10" type="motorcycle"/>
    <trip id="moto234" depart="1893.62" departLane="best" from="-24730644#8" to="24730651#3" type="motorcycle"/>
    <trip id="moto235" depart="1901.71" departLane="best" from="218164914#0" to="-28234118#0" type="motorcycle"/>
    <trip id="moto237" depart="1917.89" departLane="best" from="-191207584#5" to="191207584#13" type="motorcycle"/>
    <trip id="moto238" depart="1925.99" departLane="best" from="24730642#2" to="318477798#3" type="motorcycle"/>
    <trip id="moto240" depart="1942.17" departLane="best" from="24730644#8" to="-24730644#6" type="motorcycle"/>
    <trip id="moto242" depart="1958.36" departLane="best" from="-30029312#10" to="24730651#10" type="motorcycle"/>
    <trip id="moto243" depart="1966.45" departLane="best" from="24730644#6" to="30029312#7" type="motorcycle"/>
    <trip id="moto244" depart="1974.54" departLane="best" from="30029312#7" to="30036609" type="motorcycle"/>
    <trip id="moto245" depart="1982.63" departLane="best" from="-321823978#12" to="-30029312#0" type="motorcycle"/>
    <trip id="moto246" depart="1990.73" departLane="best" from="25649885#4" to="27768549#1" type="motorcycle"/>
    <trip id="moto249" depart="2015.00" departLane="best" from="-218164908#3" to="24730644#10" type="motorcycle"/>
    <trip id="moto250" depart="2023.09" departLane="best" from="24730653#3" to="321823978#17" type="motorcycle"/>
    <trip id="moto251" depart="2031.19" departLane="best" from="-206632633" to="30029209#4" type="motorcycle"/>
    <trip id="moto252" depart="2039.28" departLane="best" from="-30029209#3" to="-321823978#16" type="motorcycle"/>
    <trip id="moto255" depart="2063.56" departLane="best" from="318477798#0" to="24730642#5" type="motorcycle"/>
    <trip id="moto256" depart="2071.65" departLane="best" from="321823978#15" to="24730644#9" type="motorcycle"/>
    <trip id="moto257" depart="2079.74" departLane="best" from="-24730644#13" to="-330222367#7" type="motorcycle"/>
    <trip id="moto259" depart="2095.93" departLane="best" from="-27768547#1" to="30029312#3" type="motorcycle"/>
    <trip id="moto260" depart="2104.02" departLane="best" from="-24730651#10" to="-321823978#20" type="motorcycle"/>
    <trip id="moto261" depart="2112.11" departLane="best" from="102580576#0" to="-28234118#1" type="motorcycle"/>
    <trip id="moto262" depart="2120.20" departLane="best" from="218164914#0" to="218164908#4" type="motorcycle"/>
    <trip id="moto264" depart="2136.39" departLane="best" from="191207584#0" to="321823978#17" type="motorcycle"/>
    <trip id="moto265" depart="2144.48" departLane="best" from="-30029209#0" to="30029209#5" type="motorcycle"/>
    <trip id="moto266" depart="2152.57" departLane="best" from="24730644#21" to="24730642#6" type="motorcycle"/>
    <trip id="moto267" depart="2160.66" departLane="best" from="24730647#1" to="30029312#1" type="motorcycle"/>
    <trip id="moto268" depart="2168.76" departLane="best" from="24730644#17" to="321823978#17" type="motorcycle"/>
    <trip id="moto271" depart="2193.03" departLane="best" from="-24730644#22" to="-24730644#17" type="motorcycle"/>
    <trip id="moto272" depart="2201.13" departLane="best" from="206633608#0" to="321823978#21" type="motorcycle"/>
    <trip id="moto273" depart="2209.22" departLane="best" from="-30029312#10" to="-24730644#0" type="motorcycle"/>
    <trip id="moto274" depart="2217.31" departLane="best" from="330222367#4" to="-24730644#21" type="motorcycle"/>
    <trip id="moto275" depart="2225.40" departLane="best" from="330222367#6" to="30036615" type="motorcycle"/>
    <trip id="moto277" depart="2241.59" departLane="best" from="-330222367#8" to="24730644#7" type="motorcycle"/>
    <trip id="moto280" depart="2265.87" departLane="best" from="-218164912" to="-28234118#0" type="motorcycle"/>
    <trip id="moto281" depart="2273.96" departLane="best" from="218164911" to="321823978#3" type="motorcycle"/>
    <trip id="moto285" depart="2306.33" departLane="best" from="-24730642#6" to="330222367#0" type="motorcycle"/>
    <trip id="moto286" depart="2314.42" departLane="best" from="-218164908#3" to="321823978#1" type="motorcycle"/>
    <trip id="moto287" depart="2322.51" departLane="best" from="-24730642#5" to="-333396429" type="motorcycle"/>
    <trip id="moto288" depart="2330.60" departLane="best" from="330222367#0" to="-330222367#0" type="motorcycle"/>
    <trip id="moto289" depart="2338.70" departLane="best" from="-321823978#9" to="-24730642#2" type="motorcycle"/>
    <trip id="moto290" depart="2346.79" departLane="best" from="330222367#10" to="-191207584#8" type="motorcycle"/>
    <trip id="moto291" depart="2354.88" departLane="best" from="-321823978#0" to="-330222367#8" type="motorcycle"/>
    <trip id="moto292" depart="2362.97" departLane="best" from="330222367#10" to="30029312#9" type="motorcycle"/>
    <trip id="moto293" depart="2371.07" departLane="best" from="-218164908#4" to="24730647#4" type="motorcycle"/>
    <trip id="moto294" depart="2379.16" departLane="best" from="-30036609" to="-321823978#7" type="motorcycle"/>
    <trip id="moto295" depart="2387.25" departLane="best" from="-24730644#8" to="-24730644#12" type="motorcycle"/>
    <trip id="moto297" depart="2403.44" departLane="best" from="24730647#2" to="24730644#13" type="motorcycle"/>
    <trip id="moto299" depart="2419.62" departLane="best" from="-207145437" to="28233736#2" type="motorcycle"/>
    <trip id="moto300" depart="2427.71" departLane="best" from="-24730651#6" to="-27768547#1" type="motorcycle"/>
    <trip id="moto301" depart="2435.81" departLane="best" from="-24730644#1" to="321823978#15" type="motorcycle"/>
    <trip id="moto302" depart="2443.90" departLane="best" from="-102580563" to="30036609" type="motorcycle"/>
    <trip id="moto303" depart="2451.99" departLane="best" from="-24730644#0" to="-24730644#15" type="motorcycle"/>
    <trip id="moto304" depart="2460.08" departLane="best" from="-27768547#1" to="-24730651#4" type="motorcycle"/>
    <trip id="moto305" depart="2468.18" departLane="best" from="24730647#2" to="-191207584#4" type="motorcycle"/>
    <trip id="moto306" depart="2476.27" departLane="best" from="-25649885#5" to="-30029312#11" type="motorcycle"/>
    <trip id="moto307" depart="2484.36" departLane="best" from="30029209#0" to="191207584#8" type="motorcycle"/>
    <trip id="moto308" depart="2492.45" departLane="best" from="-218164912" to="191207584#2" type="motorcycle"/>
    <trip id="moto311" depart="2516.73" departLane="best" from="-35573057" to="-321823978#9" type="motorcycle"/>
    <trip id="moto312" depart="2524.82" departLane="best" from="24730653#0" to="191207584#0" type="motorcycle"/>
    <trip id="moto314" depart="2541.01" departLane="best" from="-207147909" to="24730642#10" type="motorcycle"/>
    <trip id="moto315" depart="2549.10" departLane="best" from="206633608#0" to="-333396429" type="motorcycle"/>
    <trip id="moto316" depart="2557.19" departLane="best" from="24730642#9" to="-24730642#3" type="motorcycle"/>
    <trip id="moto318" depart="2573.38" departLane="best" from="25649885#5" to="-27768547#1" type="motorcycle"/>
    <trip id="moto319" depart="2581.47" departLane="best" from="-30029312#10" to="-333396429" type="motorcycle"/>
    <trip id="moto320" depart="2589.56" departLane="best" from="-330222366#0" to="-24730642#10" type="motorcycle"/>
    <trip id="moto321" depart="2597.65" departLane="best" from="-330222366#6" to="24730644#24" type="motorcycle"/>
    <trip id="moto322" depart="2605.75" departLane="best" from="-321823978#10" to="-24730644#6" type="motorcycle"/>
    <trip id="moto324" depart="2621.93" departLane="best" from="-218164908#3" to="25649885#5" type="motorcycle"/>
    <trip id="moto325" depart="2630.02" departLane="best" from="28234118#0" to="318477798#1" type="motorcycle"/>
    <trip id="moto326" depart="2638.12" departLane="best" from="25649885#5" to="330222367#7" type="motorcycle"/>
    <trip id="moto327" depart="2646.21" departLane="best" from="-218164912" to="30029312#3" type="motorcycle"/>
    <trip id="moto329" depart="2662.39" departLane="best" from="30029312#3" to="330222367#9" type="motorcycle"/>
    <trip id="moto333" depart="2694.76" departLane="best" from="-321823978#3" to="-24730644#21" type="motorcycle"/>
    <trip id="moto334" depart="2702.85" departLane="best" from="24730644#2" to="-191207584#7" type="motorcycle"/>
    <trip id="moto336" depart="2719.04" departLane="best" from="-321823978#0" to="24730725#4" type="motorcycle"/>
    <trip id="moto337" depart="2727.13" departLane="best" from="-214599085#2" to="-214599085#0" type="motorcycle"/>
    <trip id="moto338" depart="2735.22" departLane="best" from="-24730644#13" to="24730642#5" type="motorcycle"/>
    <trip id="moto343" depart="2775.69" departLane="best" from="24730651#0" to="-206633608#0" type="motorcycle"/>
    <trip id="moto345" depart="2791.87" departLane="best" from="-27768549#0" to="-30029312#5" type="motorcycle"/>
    <trip id="moto346" depart="2799.96" departLane="best" from="-24730644#22" to="-321823978#2" type="motorcycle"/>
    <trip id="moto348" depart="2816.15" departLane="best" from="-191207584#8" to="-191207584#12" type="motorcycle"/>
    <trip id="moto351" depart="2840.42" departLane="best" from="24730642#10" to="206633608#0" type="motorcycle"/>
    <trip id="moto353" depart="2856.61" departLane="best" from="-30029312#11" to="-30029312#7" type="motorcycle"/>
    <trip id="moto355" depart="2872.79" departLane="best" from="-24730644#0" to="-25649885#1" type="motorcycle"/>
    <trip id="moto356" depart="2880.89" departLane="best" from="24730644#8" to="-24730651#6" type="motorcycle"/>
    <trip id="moto357" depart="2888.98" departLane="best" from="-330222367#5" to="321823978#7" type="motorcycle"/>
    <trip id="moto358" depart="2897.07" departLane="best" from="218164913#0" to="24730644#10" type="motorcycle"/>
    <trip id="moto359" depart="2905.16" departLane="best" from="24730644#15" to="318477798#0" type="motorcycle"/>
    <trip id="moto360" depart="2913.26" departLane="best" from="24730644#17" to="-24730644#5" type="motorcycle"/>
    <trip id="moto361" depart="2921.35" departLane="best" from="-206633608#1" to="191207584#5" type="motorcycle"/>
    <trip id="moto363" depart="2937.53" departLane="best" from="-207145445" to="318477798#0" type="motorcycle"/>
    <trip id="moto365" depart="2953.72" departLane="best" from="321823978#12" to="-331649598#1" type="motorcycle"/>
    <trip id="moto368" depart="2978.00" departLane="best" from="-218164910" to="321823978#15" type="motorcycle"/>
    <trip id="moto369" depart="2986.09" departLane="best" from="-30029312#3" to="24730653#3" type="motorcycle"/>
    <trip id="moto370" depart="2994.18" departLane="best" from="191207584#11" to="-24730651#3" type="motorcycle"/>
    <trip id="moto371" depart="3002.27" departLane="best" from="-27768547#0" to="-330222367#5" type="motorcycle"/>
    <trip id="moto372" depart="3010.36" departLane="best" from="-330222367#12" to="206632640#1" type="motorcycle"/>
    <trip id="moto373" depart="3018.46" departLane="best" from="-24730644#14" to="-321823978#15" type="motorcycle"/>
    <trip id="moto375" depart="3034.64" departLane="best" from="-207145437" to="-24730642#10" type="motorcycle"/>
    <trip id="moto377" depart="3050.83" departLane="best" from="27369330#0" to="24730644#2" type="motorcycle"/>
    <trip id="moto378" depart="3058.92" departLane="best" from="330222367#6" to="24730651#4" type="motorcycle"/>
    <trip id="moto379" depart="3067.01" departLane="best" from="-321823978#11" to="30029209#2" type="motorcycle"/>
    <trip id="moto381" depart="3083.20" departLane="best" from="24730651#8" to="206633608#1" type="motorcycle"/>
    <trip id="moto382" depart="3091.29" departLane="best" from="24730644#4" to="-330222367#10" type="motorcycle"/>
    <trip id="moto383" depart="3099.38" departLane="best" from="-30036615" to="-321823978#10" type="motorcycle"/>
    <trip id="moto384" depart="3107.47" departLane="best" from="-24730644#4" to="-27768547#0" type="motorcycle"/>
    <trip id="moto385" depart="3115.57" departLane="best" from="-191207584#5" to="-30029312#9" type="motorcycle"/>
    <trip id="moto387" depart="3131.75" departLane="best" from="-321823978#11" to="-24730651#0" type="motorcycle"/>
    <trip id="moto393" depart="3180.30" departLane="best" from="30029312#0" to="-321823978#12" type="motorcycle"/>