<?xml version="1.0" encoding="UTF-8"?>

<!-- generated on Mon Oct 15 11:34:32 2018 by SUMO duarouter Version 0.32.0
<?xml version="1.0" encoding="UTF-8"?>

<configuration xmlns:xsi="http://www.w3.org/2001/XMLSchema-instance" xsi:noNamespaceSchemaLocation="http://sumo.dlr.de/xsd/duarouterConfiguration.xsd">

    <input>
        <net-file value="osm.net.xml"/>
        <route-files value="osm.motorcycle.trips.xml"/>
    </input>

    <output>
        <output-file value="osm.motorcycle.rou.xml"/>
        <alternatives-output value="osm.motorcycle.rou.alt.xml"/>
    </output>

    <processing>
        <ignore-errors value="true"/>
    </processing>

    <time>
        <begin value="0"/>
        <end value="10000.0"/>
    </time>

    <report>
        <no-warnings value="true"/>
        <no-step-log value="true"/>
    </report>

</configuration>
-->

<routes xmlns:xsi="http://www.w3.org/2001/XMLSchema-instance" xsi:noNamespaceSchemaLocation="http://sumo.dlr.de/xsd/routes_file.xsd">
    <vType id="motorcycle" speedFactor="normc(1.00,0.10,0.20,2.00)" vClass="motorcycle"/>
    <vehicle id="moto0" type="motorcycle" depart="0.00" departLane="best">
        <route edges="27768549#1 -30036615 -333396429 -27768547#2 -27768547#1 -27768547#0 24730644#4 24730644#5 24730644#6 24730644#7 24730644#8"/>
    </vehicle>
    <vehicle id="moto2" type="motorcycle" depart="16.18" departLane="best">
        <route edges="-191207584#11 30029209#0 30029209#1 30029209#2 30029209#3 30029209#4 30029209#5 25649885#0 25649885#1 25649885#2 -25649885#2"/>
    </vehicle>
    <vehicle id="moto6" type="motorcycle" depart="48.55" departLane="best">
        <route edges="-30029312#11 -30029312#10 -30029312#9 -30029312#8 -30029312#7 -30029312#6 -30029312#5 -30029312#3 -30029312#1 -30029312#0 -24730651#2 -24730651#1 -24730651#0 24730647#4 24730647#1 24730644#0 24730644#1 24730644#2 24730644#4 24730644#5 24730644#6 24730644#7 -24730644#7"/>
    </vehicle>
    <vehicle id="moto7" type="motorcycle" depart="56.65" departLane="best">
        <route edges="-218164908#1 -218164908#0 35572872#0 35572872#1 28234118#1 28234118#2 28234118#3 -28233736#2 -28233736#1 -28233736#0 95641233 24730643 318477798#3 -318477797 -318477795 24730642#0 24730642#1 24730642#2 24730642#3 24730642#4 24730642#5 24730642#6 24730642#8 24730642#9 24730642#10 -24730642#10"/>
    </vehicle>
    <vehicle id="moto12" type="motorcycle" depart="97.11" departLane="best">
        <route edges="-207147909 28233736#1 28233736#2 -28234119 -28234118#2 -28234118#1 -28234118#0"/>
    </vehicle>
    <vehicle id="moto14" type="motorcycle" depart="113.29" departLane="best">
        <route edges="24730644#21 -24730644#21 -24730644#19 -24730644#18 -24730644#17 -24730644#15 -24730644#14 -24730644#13 24730653#0 24730653#1 24730653#2 24730653#3 24730653#4 30036609 321823978#6 321823978#7 321823978#8 321823978#9 321823978#10 321823978#11 -321823978#11"/>
    </vehicle>
    <vehicle id="moto16" type="motorcycle" depart="129.48" departLane="best">
        <route edges="-28234118#1 28234118#1 28234118#2 28234118#3 -28233736#2 -28233736#1 -28233736#0 95641233 24730643 318477798#3 -318477797 -318477795 331649598#1 330222366#0 330222366#1 330222366#3"/>
    </vehicle>
    <vehicle id="moto17" type="motorcycle" depart="137.57" departLane="best">
        <route edges="24730644#5 24730644#6 24730644#7 24730644#8 24730644#9 24730644#10 24730644#11 24730644#12 24730653#0 24730653#1 24730653#2 -24730642#10 24730642#10"/>
    </vehicle>
    <vehicle id="moto18" type="motorcycle" depart="145.66" departLane="best">
        <route edges="-24730644#2 -24730644#1 -24730644#0 24730647#2 24730651#0 24730651#1 24730651#2 24730651#3 24730651#4 24730651#6 24730651#7 24730651#8 24730651#10 25649885#0 25649885#1"/>
    </vehicle>
    <vehicle id="moto19" type="motorcycle" depart="153.76" departLane="best">
        <route edges="-24730644#17 -24730644#15 -24730644#14 -24730644#13 -24730644#12 -24730644#11 -24730644#10 -24730644#9 -24730644#8 -24730644#7 -24730644#6 -24730644#5 -24730644#4 27768547#0 27768547#1 27768547#2 -321823978#21 -321823978#20 -321823978#18"/>
    </vehicle>
    <vehicle id="moto20" type="motorcycle" depart="161.85" departLane="best">
        <route edges="218164908#5 -218164908#5 -218164908#4 -218164908#3 -218164908#2 -218164908#1 -218164908#0 35572872#0 35572872#1 28234118#1 28234118#2 28234118#3 -28233736#2 -28233736#1 -28233736#0 95641233 24730643 318477798#3 -318477797 -24730644#23 -24730644#22 -24730644#21 -24730644#19 -24730644#18 -24730644#17 -24730644#15 -24730644#14 -24730644#13 -24730644#12 -24730644#11 -24730644#10 -24730644#9 -24730644#8 -24730644#7 -24730644#6 -24730644#5 -24730644#4 -24730644#2 -24730644#1 -24730644#0 24730647#2 24730647#4"/>
    </vehicle>
    <vehicle id="moto21" type="motorcycle" depart="169.94" departLane="best">
        <route edges="-25649885#1 -25649885#0 -24730651#10 -24730651#8 -24730651#7 -24730651#6 -24730651#4 -24730651#3 -24730651#2 -24730651#1 -24730651#0 191207584#0 191207584#1 191207584#2 191207584#4 191207584#5 191207584#7 -191207584#7"/>
    </vehicle>
    <vehicle id="moto22" type="motorcycle" depart="178.03" departLane="best">
        <route edges="24730644#8 24730644#9 24730644#10 24730644#11 24730644#12 24730653#0 24730653#1 24730653#2 24730653#3 24730653#4 30036609 321823978#6 -321823978#6"/>
    </vehicle>
    <vehicle id="moto24" type="motorcycle" depart="194.22" departLane="best">
        <route edges="24730642#0 -24730642#0 331649598#1 330222366#0 330222366#1 330222366#3 330222366#4 330222366#5 330222366#6 330222367#0 330222367#1 330222367#2 24730653#4 30036609 321823978#6 321823978#7 321823978#8 321823978#9 321823978#10 321823978#11 321823978#12 321823978#14"/>
    </vehicle>
    <vehicle id="moto25" type="motorcycle" depart="202.31" departLane="best">
        <route edges="-218164908#0 35572872#0 35572872#1 28234118#1 28234118#2 28234118#3 -28233736#2 -28233736#1 -28233736#0 95641233 24730643 318477798#3 -318477797 -24730644#23 -24730644#22 -24730644#21 -24730644#19 -24730644#18 -24730644#17 -24730644#15 -24730644#14 -24730644#13 -24730644#12 -24730644#11 -24730644#10 -24730644#9 -24730644#8 -24730644#7 -24730644#6 -24730644#5 -24730644#4 -24730644#2 -24730644#1 -24730644#0 24730647#2 24730651#0 24730651#1 24730651#2 30029312#0 30029312#1 30029312#3 30029312#4 30029312#6 -206633608#1"/>
    </vehicle>
    <vehicle id="moto26" type="motorcycle" depart="210.40" departLane="best">
        <route edges="330222367#8 330222367#9 330222367#10 27768547#2 333396429 30036615"/>
    </vehicle>
    <vehicle id="moto27" type="motorcycle" depart="218.49" departLane="best">
        <route edges="-28234118#1 28234118#1 28234118#2 28234118#3 -28233736#2 -28233736#1 -28233736#0 95641233 24730643 318477798#3 -318477797 -24730644#23 -24730644#22 -24730644#21 -24730644#19 -24730644#18 -24730644#17 -24730644#15 -24730644#14 -24730644#13 24730644#13"/>
    </vehicle>
    <vehicle id="moto28" type="motorcycle" depart="226.59" departLane="best">
        <route edges="-218164913#1 218164914#0 218164912 -218164908#3 -218164908#2 -218164908#1 -218164908#0 35572872#0 35572872#1 28234118#1 28234118#2 28234118#3 -28233736#2 -28233736#1 -28233736#0 95641233 24730643 318477798#3 -318477797 -318477795 331649598#1 330222366#0 330222366#1 330222366#3 330222366#4 330222366#5 330222366#6 330222367#0 330222367#1 330222367#2 330222367#3 330222367#4 -330222367#4"/>
    </vehicle>
    <vehicle id="moto29" type="motorcycle" depart="234.68" departLane="best">
        <route edges="-330222367#7 330222367#7 330222367#8 330222367#9 330222367#10 330222367#11"/>
    </vehicle>
    <vehicle id="moto30" type="motorcycle" depart="242.77" departLane="best">
        <route edges="191207584#10 30029209#0 30029209#1 30029209#2 30029209#3 30029209#4 30029209#5 -24730651#10 -24730651#8 -24730651#7"/>
    </vehicle>
    <vehicle id="moto32" type="motorcycle" depart="258.96" departLane="best">
        <route edges="24730644#0 24730644#1 24730644#2 24730644#4 24730644#5 24730644#6 -24730644#6"/>
    </vehicle>
    <vehicle id="moto34" type="motorcycle" depart="275.14" departLane="best">
        <route edges="-191207584#0 24730647#4 -330222367#12 -330222367#11 27768547#2 -321823978#21 -321823978#20 -321823978#18 -321823978#17 -321823978#16 -321823978#15 -321823978#14 -321823978#12 -321823978#11 -321823978#10 -321823978#9 321823978#9"/>
    </vehicle>
    <vehicle id="moto36" type="motorcycle" depart="291.33" departLane="best">
        <route edges="-207145441 28234118#2 28234118#3 -28233736#2 -28233736#1 -28233736#0 28233736#0"/>
    </vehicle>
    <vehicle id="moto37" type="motorcycle" depart="299.42" departLane="best">
        <route edges="-35572874 -30029318 35572872#1 28234118#1 28234118#2 28234118#3 -28233736#2 -28233736#1 207147909"/>
    </vehicle>
    <vehicle id="moto38" type="motorcycle" depart="307.51" departLane="best">
        <route edges="-28233736#2 -28233736#1 -28233736#0 95641233 333394471 319828651#0"/>
    </vehicle>
    <vehicle id="moto40" type="motorcycle" depart="323.70" departLane="best">
        <route edges="35572872#0 35572872#1 28234118#1 28234118#2 28234118#3 -28233736#2 -28233736#1 -28233736#0 95641233 24730643 318477798#3 -318477797 -24730644#23 -24730644#22 -24730644#21 -24730644#19 -24730644#18 24730644#18"/>
    </vehicle>
    <vehicle id="moto41" type="motorcycle" depart="331.79" departLane="best">
        <route edges="-330222367#12 330222367#12 24730647#1 24730647#2 24730651#0 24730651#1 24730651#2 30029312#0 30029312#1 206632633"/>
    </vehicle>
    <vehicle id="moto43" type="motorcycle" depart="347.97" departLane="best">
        <route edges="-25649885#2 -25649885#1 -25649885#0 -24730651#10 -24730651#8 -24730651#7 -24730651#6 -24730651#4 -24730651#3 -24730651#2 -24730651#1 -24730651#0 191207584#0 191207584#1 191207584#2 27768549#0 -27768549#0"/>
    </vehicle>
    <vehicle id="moto44" type="motorcycle" depart="356.06" departLane="best">
        <route edges="-25649885#1 -25649885#0 -24730651#10 -24730651#8 -24730651#7 -24730651#6 -24730651#4 -24730651#3 -24730651#2 -24730651#1 -24730651#0 24730647#4 -330222367#12 -330222367#11 27768547#2 -321823978#21 -321823978#20 -321823978#18 -321823978#17 321823978#17"/>
    </vehicle>
    <vehicle id="moto46" type="motorcycle" depart="372.25" departLane="best">
        <route edges="-25649885#5 -25649885#4 -30029312#11 -30029312#10 -30029312#9 -30029312#8 -30029312#7 -30029312#6 -30029312#5 -30029312#3 -30029312#1 -30029312#0 -24730651#2 -24730651#1 -24730651#0 24730647#4 24730647#1 24730644#0 24730644#1 24730644#2 24730644#4 24730644#5"/>
    </vehicle>
    <vehicle id="moto47" type="motorcycle" depart="380.34" departLane="best">
        <route edges="-24730653#0 24730644#13 24730644#14 24730644#15 24730644#17 -24730644#17"/>
    </vehicle>
    <vehicle id="moto51" type="motorcycle" depart="412.71" departLane="best">
        <route edges="-218164908#3 -218164908#2 -218164908#1 -218164908#0 35572872#0 35572872#1 28234118#1 28234118#2 28234118#3 -28233736#2 -28233736#1 -28233736#0 95641233 24730643 318477798#3 -318477797 -318477795 331649598#1 330222366#0 330222366#1 330222366#3 330222366#4 330222366#5 330222366#6 330222367#0 330222367#1 330222367#2 330222367#3 -330222367#3"/>
    </vehicle>
    <vehicle id="moto53" type="motorcycle" depart="428.90" departLane="best">
        <route edges="27768547#0 -27768547#0 24730644#4 24730644#5 24730644#6 24730644#7"/>
    </vehicle>
    <vehicle id="moto56" type="motorcycle" depart="453.17" departLane="best">
        <route edges="-24730644#8 24730644#8 24730644#9 24730644#10 24730644#11 24730644#12 24730653#0 24730653#1 24730653#2 -24730642#10 -24730642#9 -24730642#8 -24730642#6 -24730642#5 -24730642#4 -24730642#3 -24730642#2 -24730642#1 -24730642#0 -331649598#0"/>
    </vehicle>
    <vehicle id="moto58" type="motorcycle" depart="469.36" departLane="best">
        <route edges="-27768547#0 24730644#4 24730644#5 24730644#6 24730644#7 24730644#8 24730644#9 24730644#10 24730644#11 24730644#12 24730653#0 24730653#1 24730653#2 24730653#3 24730653#4 30036609 321823978#6"/>
    </vehicle>
    <vehicle id="moto59" type="motorcycle" depart="477.45" departLane="best">
        <route edges="-330222367#3 330222367#3 330222367#4 330222367#5 330222367#6 330222367#7 330222367#8 330222367#9 330222367#10 27768547#2 333396429 30036615"/>
    </vehicle>
    <vehicle id="moto61" type="motorcycle" depart="493.64" departLane="best">
        <route edges="330222367#7 -330222367#7 -330222367#6 -330222367#5 -330222367#4 -330222367#3 24730653#4 30036609 321823978#6 321823978#7 321823978#8"/>
    </vehicle>
    <vehicle id="moto62" type="motorcycle" depart="501.73" departLane="best">
        <route edges="30029312#6 -30029312#6 -30029312#5 -30029312#3 -30029312#1 -30029312#0 24730651#3 24730651#4 24730651#6 24730651#7 24730651#8 24730651#10 -24730651#10"/>
    </vehicle>
    <vehicle id="moto63" type="motorcycle" depart="509.82" departLane="best">
        <route edges="102580576#1 -218164908#5 -218164908#4 -218164908#3 -218164908#2 -218164908#1 -218164908#0 35572872#0 35572872#1 28234118#1 28234118#2 28234118#3 -28233736#2 -28233736#1 -28233736#0 95641233 24730643 318477798#3 -318477797 -24730644#23 -24730644#22 -24730644#21 -24730644#19 -24730644#18 -24730644#17 -24730644#15 -24730644#14 -24730644#13 -24730644#12 -24730644#11 -24730644#10 -24730644#9 -24730644#8 -24730644#7 -24730644#6 -24730644#5 -24730644#4 27768547#0 -27768547#0"/>
    </vehicle>
    <vehicle id="moto66" type="motorcycle" depart="534.10" departLane="best">
        <route edges="-330222367#8 330222367#8 330222367#9 330222367#10 -330222367#10"/>
    </vehicle>
    <vehicle id="moto68" type="motorcycle" depart="550.28" departLane="best">
        <route edges="218164908#5 -218164908#5 -218164908#4 -218164908#3 -218164908#2 -218164908#1 -218164908#0 35572872#0 35572872#1 28234118#1 28234118#2 28234118#3 -28233736#2 -28233736#1 -28233736#0 95641233 24730643 318477798#3 -318477797 -318477795 331649598#1 330222366#0 330222366#1 330222366#3 330222366#4 330222366#5 330222366#6 330222367#0 330222367#1 330222367#2 24730653#4"/>
    </vehicle>
    <vehicle id="moto70" type="motorcycle" depart="566.47" departLane="best">
        <route edges="214599085#1 -214599085#1 27430119#0 27430119#1"/>
    </vehicle>
    <vehicle id="moto72" type="motorcycle" depart="582.65" departLane="best">
        <route edges="191207584#11 -191207584#11 30029209#0 30029209#1 30029209#2 30029209#3 30029209#4 30029209#5 -24730651#10 -24730651#8 -24730651#7 -24730651#6 -24730651#4 -24730651#3 30029312#0 30029312#1 30029312#3 30029312#4 30029312#6 30029312#7 30029312#8"/>
    </vehicle>
    <vehicle id="moto73" type="motorcycle" depart="590.74" departLane="best">
        <route edges="-24730644#13 24730653#0 24730653#1 24730653#2 24730653#3 330222367#3"/>
    </vehicle>
    <vehicle id="moto74" type="motorcycle" depart="598.84" departLane="best">
        <route edges="-207147909 -28233736#0 95641233 24730643 318477798#3 -318477797 -318477795 24730642#0 24730642#1 24730642#2 24730642#3 24730642#4 24730642#5 24730642#6 24730642#8 24730642#9 24730642#10 -24730653#2 -24730653#1"/>
    </vehicle>
    <vehicle id="moto75" type="motorcycle" depart="606.93" departLane="best">
        <route edges="24730642#4 24730642#5 24730642#6 24730642#8 24730642#9 24730642#10 -24730653#2 -24730653#1 -24730653#0 -24730644#12 -24730644#11 -24730644#10 -24730644#9 -24730644#8 24730644#8"/>
    </vehicle>
    <vehicle id="moto76" type="motorcycle" depart="615.02" departLane="best">
        <route edges="-25649885#4 -30029312#11 -30029312#10 -30029312#9 -30029312#8 -30029312#7 -30029312#6 -30029312#5 -30029312#3 -30029312#1 -30029312#0 -24730651#2 -24730651#1 -24730651#0 24730647#4 24730647#1 24730644#0 24730644#1 24730644#2 24730644#4 24730644#5 24730644#6 24730644#7 24730644#8 24730644#9 24730644#10 24730644#11 -24730644#11"/>
    </vehicle>
    <vehicle id="moto77" type="motorcycle" depart="623.11" departLane="best">
        <route edges="24730642#4 24730642#5"/>
    </vehicle>
    <vehicle id="moto79" type="motorcycle" depart="639.30" departLane="best">
        <route edges="-27369330#0 -30029318 35572872#1 28234118#1 28234118#2 28234118#3 -28233736#2 -28233736#1 -28233736#0 95641233 24730643 318477798#3 -318477797 -318477795 331649598#1 330222366#0 330222366#1 330222366#3 330222366#4 330222366#5 330222366#6 330222367#0 330222367#1 330222367#2 24730653#4 30036609 321823978#6 -321823978#6"/>
    </vehicle>
    <vehicle id="moto81" type="motorcycle" depart="655.48" departLane="best">
        <route edges="-28233736#2 -28233736#1 -28233736#0 95641233 24730643 318477798#3 -318477797 -318477795 331649598#1 330222366#0 330222366#1"/>
    </vehicle>
    <vehicle id="moto82" type="motorcycle" depart="663.58" departLane="best">
        <route edges="319828651#3 319828651#4"/>
    </vehicle>
    <vehicle id="moto83" type="motorcycle" depart="671.67" departLane="best">
        <route edges="-321823978#0 330222366#0 330222366#1 330222366#3 330222366#4 330222366#5 330222366#6 330222367#0 330222367#1 330222367#2 -24730653#3 -24730653#2 -24730653#1 -24730653#0 -24730644#12 -24730644#11 -24730644#10 -24730644#9 -24730644#8"/>
    </vehicle>
    <vehicle id="moto87" type="motorcycle" depart="704.04" departLane="best">
        <route edges="30029236 -30029236"/>
    </vehicle>
    <vehicle id="moto88" type="motorcycle" depart="712.13" departLane="best">
        <route edges="-28234119 28234118#3 -28233736#2 -28233736#1 -28233736#0 95641233 24730643 318477798#3 -318477797 -318477795 24730642#0"/>
    </vehicle>
    <vehicle id="moto89" type="motorcycle" depart="720.22" departLane="best">
        <route edges="25649885#3 25649885#4 -25649885#4"/>
    </vehicle>
    <vehicle id="moto90" type="motorcycle" depart="728.31" departLane="best">
        <route edges="24730644#2 -24730644#2 -24730644#1 -24730644#0 24730647#2 24730651#0 24730651#1 24730651#2 24730651#3 24730651#4 24730651#6 24730651#7 24730651#8 24730651#10 -30029209#5 -30029209#4 -30029209#3 -30029209#2"/>
    </vehicle>
    <vehicle id="moto91" type="motorcycle" depart="736.41" departLane="best">
        <route edges="102580576#2 -102580576#2 -218164908#5 -218164908#4 -218164908#3 -218164908#2 -218164908#1 -218164908#0 35572872#0 35572872#1 28234118#1 28234118#2 28234118#3 -28233736#2 -28233736#1 -28233736#0 95641233 24730643 318477798#3 -318477797 -318477795 331649598#1 330222366#0 330222366#1 330222366#3 330222366#4 330222366#5 330222366#6 330222367#0 330222367#1 330222367#2 24730653#4 30036609 321823978#6 321823978#7 321823978#8 321823978#9 321823978#10 321823978#11 321823978#12 321823978#14 321823978#15 321823978#16 321823978#17"/>
    </vehicle>
    <vehicle id="moto93" type="motorcycle" depart="752.59" departLane="best">
        <route edges="-102580563 -28234119 -28234118#2 28234118#2"/>
    </vehicle>
    <vehicle id="moto94" type="motorcycle" depart="760.68" departLane="best">
        <route edges="28233736#1 -28233736#1 207147909"/>
    </vehicle>
    <vehicle id="moto95" type="motorcycle" depart="768.78" departLane="best">
        <route edges="-207145445 -28233736#1 -28233736#0 95641233 333394471 319828651#0 319828651#2 319828651#3 319828651#4 319828651#5"/>
    </vehicle>
    <vehicle id="moto96" type="motorcycle" depart="776.87" departLane="best">
        <route edges="-24730644#1 24730644#1 24730644#2 24730644#4 24730644#5 24730644#6 24730644#7 24730644#8 24730644#9 24730644#10 24730644#11 24730644#12 24730644#13 24730644#14 -24730644#14"/>
    </vehicle>
    <vehicle id="moto99" type="motorcycle" depart="801.15" departLane="best">
        <route edges="-27768547#0 24730644#4 24730644#5 24730644#6 24730644#7 24730644#8 24730644#9 24730644#10 24730644#11 24730644#12 24730653#0 24730653#1 24730653#2 -24730642#10 -24730642#9 -24730642#8 -24730642#6 -24730642#5 -24730642#4"/>
    </vehicle>
    <vehicle id="moto100" type="motorcycle" depart="809.24" departLane="best">
        <route edges="-321823978#6 -30036609 -24730653#4 -24730653#3 -24730642#10 -24730642#9 -24730642#8 -24730642#6 24730642#6"/>
    </vehicle>
    <vehicle id="moto101" type="motorcycle" depart="817.33" departLane="best">
        <route edges="-24730644#12 24730644#12 24730653#0 24730653#1 24730653#2 24730653#3 24730653#4 30036609 321823978#6 321823978#7 321823978#8 321823978#9"/>
    </vehicle>
    <vehicle id="moto103" type="motorcycle" depart="833.51" departLane="best">
        <route edges="-191207584#10 -191207584#9 -191207584#8 -191207584#7 -191207584#5 -191207584#4 -191207584#2 -191207584#1 -191207584#0 24730651#0 24730651#1 24730651#2 30029312#0 30029312#1 30029312#3 30029312#4 30029312#6 30029312#7 30029312#8 30029312#9 30029312#10 30029312#11 25649885#4"/>
    </vehicle>
    <vehicle id="moto105" type="motorcycle" depart="849.70" departLane="best">
        <route edges="318477798#1 318477798#3 -318477797 -318477795 331649598#1 330222366#0 330222366#1 330222366#3 330222366#4 330222366#5 330222366#6 330222367#0 330222367#1 330222367#2 24730653#4 30036609"/>
    </vehicle>
    <vehicle id="moto109" type="motorcycle" depart="882.07" departLane="best">
        <route edges="24730644#23 -318477795 331649598#1 330222366#0 330222366#1 330222366#3 330222366#4 330222366#5 330222366#6 330222367#0 330222367#1 330222367#2 24730653#4 30036609 321823978#6 321823978#7 321823978#8 -321823978#8"/>
    </vehicle>
    <vehicle id="moto111" type="motorcycle" depart="898.25" departLane="best">
        <route edges="330222367#8 330222367#9 330222367#10 330222367#11 330222367#12 24730647#1 24730647#2 24730651#0 24730651#1 24730651#2 24730651#3 24730651#4 24730651#6 24730651#7 -24730651#7"/>
    </vehicle>
    <vehicle id="moto112" type="motorcycle" depart="906.35" departLane="best">
        <route edges="-218164912 218164912 -218164908#3 -218164908#2 -218164908#1 -218164908#0 35572872#0 35572872#1 28234118#1 28234118#2 28234118#3 -28233736#2 -28233736#1 -28233736#0 95641233 24730643 318477798#3 -318477797 -318477795 331649598#1 330222366#0 330222366#1 330222366#3 330222366#4 330222366#5 330222366#6 330222367#0 330222367#1 330222367#2 330222367#3 330222367#4 -330222367#4"/>
    </vehicle>
    <vehicle id="moto115" type="motorcycle" depart="930.62" departLane="best">
        <route edges="-27768549#0 -191207584#2 -191207584#1 -191207584#0 24730647#4 24730647#1 24730644#0 24730644#1 24730644#2 24730644#4 24730644#5 24730644#6 24730644#7 24730644#8 24730644#9 24730644#10 24730644#11 24730644#12 24730653#0"/>
    </vehicle>
    <vehicle id="moto116" type="motorcycle" depart="938.72" departLane="best">
        <route edges="-102580563 -28233736#2 -28233736#1 -28233736#0 95641233 24730643 318477798#3 -318477797 -318477795 331649598#1 330222366#0 330222366#1 330222366#3 330222366#4 330222366#5 330222366#6 330222367#0 330222367#1 330222367#2 24730653#4 30036609 321823978#6 321823978#7"/>
    </vehicle>
    <vehicle id="moto117" type="motorcycle" depart="946.81" departLane="best">
        <route edges="24730647#4 24730647#1 24730647#2 24730651#0 24730651#1 24730651#2 30029312#0 30029312#1 30029312#3 30029312#4 30029312#6 -30029312#6"/>
    </vehicle>
    <vehicle id="moto119" type="motorcycle" depart="962.99" departLane="best">
        <route edges="-24730642#10 24730642#10 24730653#3 -330222367#2 -330222367#1"/>
    </vehicle>
    <vehicle id="moto120" type="motorcycle" depart="971.09" departLane="best">
        <route edges="330222366#4 330222366#5 330222366#6 330222367#0 330222367#1 330222367#2 -24730653#3 -24730653#2 -24730653#1 -24730653#0 -24730644#12 -24730644#11 -24730644#10 -24730644#9 -24730644#8 24730644#8"/>
    </vehicle>
    <vehicle id="moto121" type="motorcycle" depart="979.18" departLane="best">
        <route edges="321823978#16 -321823978#16 -321823978#15 -321823978#14 -321823978#12 -321823978#11 -321823978#10 -321823978#9 -321823978#8 -321823978#7 -321823978#6 -30036609 -24730653#4 -24730653#3 -24730642#10 -24730642#9 -24730642#8 -24730642#6 -24730642#5 -24730642#4 24730642#4"/>
    </vehicle>
    <vehicle id="moto125" type="motorcycle" depart="1011.55" departLane="best">
        <route edges="-330222367#2 330222367#2 -24730653#3 -24730653#2 -24730653#1 -24730653#0 -24730644#12 -24730644#11 -24730644#10 -24730644#9 -24730644#8 -24730644#7 -24730644#6 -24730644#5 -24730644#4 27768547#0 -27768547#0"/>
    </vehicle>
    <vehicle id="moto126" type="motorcycle" depart="1019.64" departLane="best">
        <route edges="-35572872#1 35572872#1 28234118#1 28234118#2 28234118#3 -28233736#2 -28233736#1 -28233736#0 95641233 24730643 318477798#3 -318477797 -318477795 331649598#1 330222366#0 330222366#1 330222366#3 330222366#4 330222366#5 330222366#6 330222367#0 330222367#1 330222367#2 24730653#4 30036609 321823978#6 321823978#7 321823978#8 321823978#9 321823978#10 321823978#11 321823978#12 321823978#14 321823978#15 321823978#16"/>
    </vehicle>
    <vehicle id="moto129" type="motorcycle" depart="1043.92" departLane="best">
        <route edges="-24730651#10 -24730651#8 -24730651#7 -24730651#6 -24730651#4 -24730651#3 -24730651#2 -24730651#1 -24730651#0 191207584#0 191207584#1 191207584#2 -191207584#2"/>
    </vehicle>
    <vehicle id="moto131" type="motorcycle" depart="1060.10" departLane="best">
        <route edges="-321823978#9 321823978#9 321823978#10 321823978#11 321823978#12 321823978#14 321823978#15 321823978#16 321823978#17 321823978#18 321823978#20 321823978#21 -27768547#2 330222367#11 330222367#12 24730647#1 24730644#0"/>
    </vehicle>
    <vehicle id="moto132" type="motorcycle" depart="1068.19" departLane="best">
        <route edges="-24730651#0 24730651#0 24730651#1 24730651#2 24730651#3"/>
    </vehicle>
    <vehicle id="moto134" type="motorcycle" depart="1084.38" departLane="best">
        <route edges="28234118#0 28234118#1 28234118#2"/>
    </vehicle>
    <vehicle id="moto135" type="motorcycle" depart="1092.47" departLane="best">
        <route edges="-218164910 -218164908#0 35572872#0 35572872#1 28234118#1 28234118#2 28234118#3 -28233736#2 -28233736#1 -28233736#0 95641233 24730643 318477798#3 -318477797 -318477795 331649598#1 330222366#0 330222366#1 330222366#3 330222366#4 330222366#5 330222366#6 330222367#0 330222367#1 330222367#2 330222367#3 330222367#4 330222367#5 330222367#6 330222367#7 330222367#8 330222367#9 330222367#10 330222367#11 -330222367#11"/>
    </vehicle>
    <vehicle id="moto136" type="motorcycle" depart="1100.56" departLane="best">
        <route edges="-24730644#22 24730644#22 24730644#23 -318477795 331649598#1 330222366#0 330222366#1 330222366#3 330222366#4 330222366#5 330222366#6 330222367#0 330222367#1 330222367#2"/>
    </vehicle>
    <vehicle id="moto138" type="motorcycle" depart="1116.75" departLane="best">
        <route edges="-27768547#0 -24730644#2 -24730644#1 -24730644#0 24730647#2 24730651#0 24730651#1 24730651#2 30029312#0 30029312#1 30029312#3 30029312#4 30029312#6"/>
    </vehicle>
    <vehicle id="moto141" type="motorcycle" depart="1141.03" departLane="best">
        <route edges="321823978#10 -321823978#10 -321823978#9 -321823978#8 -321823978#7 -321823978#6 -30036609 -24730653#4 -24730653#3 -24730642#10 -24730642#9 -24730642#8 -24730642#6 -24730642#5 -24730642#4 -24730642#3 -24730642#2 24730642#2"/>
    </vehicle>
    <vehicle id="moto142" type="motorcycle" depart="1149.12" departLane="best">
        <route edges="25649885#4 -25649885#4 -30029312#11 -30029312#10 -30029312#9 -30029312#8 -30029312#7 -30029312#6 -30029312#5 -30029312#3 -30029312#1 -30029312#0 -24730651#2 -24730651#1 -24730651#0 191207584#0 191207584#1 191207584#2 191207584#4"/>
    </vehicle>
    <vehicle id="moto143" type="motorcycle" depart="1157.21" departLane="best">
        <route edges="-25649885#2 -25649885#1 -25649885#0 -24730651#10 -24730651#8 -24730651#7 -24730651#6 -24730651#4 -24730651#3 -24730651#2 24730651#2"/>
    </vehicle>
    <vehicle id="moto145" type="motorcycle" depart="1173.39" departLane="best">
        <route edges="-330222366#3 330222366#3 330222366#4 330222366#5 330222366#6 330222367#0 330222367#1 330222367#2 24730653#4 30036609 321823978#6 321823978#7 321823978#8 321823978#9 321823978#10 321823978#11 321823978#12 321823978#14 321823978#15 321823978#16 321823978#17"/>
    </vehicle>
    <vehicle id="moto147" type="motorcycle" depart="1189.58" departLane="best">
        <route edges="-30029312#8 -30029312#7 -30029312#6 -30029312#5 -30029312#3 -30029312#1 -30029312#0 -24730651#2 -24730651#1 -24730651#0 24730647#4 -330222367#12 -330222367#11 27768547#2"/>
    </vehicle>
    <vehicle id="moto148" type="motorcycle" depart="1197.67" departLane="best">
        <route edges="30029312#8 -30029312#8 -30029312#7 -30029312#6 -30029312#5 -30029312#3 -30029312#1 -30029312#0 -24730651#2 -24730651#1 -24730651#0 24730647#4 -330222367#12 -330222367#11 330222367#11"/>
    </vehicle>
    <vehicle id="moto149" type="motorcycle" depart="1205.76" departLane="best">
        <route edges="-24730653#3 -24730653#2 -24730653#1 -24730653#0 -24730644#12 -24730644#11 -24730644#10 -24730644#9 -24730644#8 -24730644#7 -24730644#6 -24730644#5 -24730644#4 -24730644#2 -24730644#1 -24730644#0 24730647#2 191207584#0 191207584#1 191207584#2 27768549#0 -27768549#0"/>
    </vehicle>
    <vehicle id="moto150" type="motorcycle" depart="1213.86" departLane="best">
        <route edges="-330222367#11 27768547#2 333396429 30036615 -27768549#1 -27768549#0 191207584#4 191207584#5 -191207584#5"/>
    </vehicle>
    <vehicle id="moto151" type="motorcycle" depart="1221.95" departLane="best">
        <route edges="-30029312#1 -30029312#0 -24730651#2 -24730651#1 -24730651#0 24730647#4 24730647#1 24730644#0 24730644#1 24730644#2 24730644#4 24730644#5 24730644#6 24730644#7 24730644#8 24730644#9"/>
    </vehicle>
    <vehicle id="moto152" type="motorcycle" depart="1230.04" departLane="best">