<?xml version="1.0" encoding="UTF-8"?>

<!-- generated on Mon Oct 15 11:34:30 2018 by SUMO duarouter Version 0.32.0
<?xml version="1.0" encoding="UTF-8"?>

<configuration xmlns:xsi="http://www.w3.org/2001/XMLSchema-instance" xsi:noNamespaceSchemaLocation="http://sumo.dlr.de/xsd/duarouterConfiguration.xsd">

    <input>
        <net-file value="osm.net.xml"/>
        <additional-files value="osm_stops.add.xml,osm_pt.rou.xml"/>
        <route-files value="osm.pedestrian.trips.xml"/>
    </input>

    <output>
        <output-file value="osm.pedestrian.rou.xml"/>
        <alternatives-output value="osm.pedestrian.rou.alt.xml"/>
    </output>

    <processing>
        <ignore-errors value="true"/>
    </processing>

    <time>
        <begin value="0"/>
        <end value="10000.0"/>
    </time>

    <report>
        <no-warnings value="true"/>
        <no-step-log value="true"/>
    </report>

</configuration>
-->

<routes xmlns:xsi="http://www.w3.org/2001/XMLSchema-instance" xsi:noNamespaceSchemaLocation="http://sumo.dlr.de/xsd/routes_file.xsd">
    <person id="ped2" depart="4.35">
        <walk edges="30025545 321823978#15 321823978#14 321823978#12 321823978#11 321823978#10 321823978#9 321823978#8 321823978#7 321823978#6 30036609 -30024674 -30024675#1 30024675#2"/>
    </person>
    <person id="ped3" depart="6.53">
        <walk edges="318477185#2 318477185#1 -318477185#0 -24730644#15 30025006#2 -30025006#1 30025006#0 -30024690#1 -24730642#9"/>
    </person>
    <person id="ped4" depart="8.71">
        <walk edges="-330222367#12 24730647#4 191207584#0 191207584#1 -191207584#2 -191207584#4 -191207584#5"/>
    </person>
    <person id="ped5" depart="10.88">
        <walk edges="-30025539#1 -30025539#0 24730644#9 24730644#8 24730644#7 24730644#6 24730644#5 24730644#4 24730644#2 24730644#1 -30029309#2 206632634#1 30036681 -206632640#1 -30029312#5 -30029312#6 206633608#1 -30029316 -204781439#0 -53083562 -377123627 326757022 205881348"/>
    </person>
    <person id="ped6" depart="13.06">
        <walk edges="-191207584#13 191207584#13 -30024681#4 30024681#3 -30024681#2 -30024681#1 -30024681#0 30024678#0 321823978#4 -321823978#3 -321823978#2 -30024708"/>
    </person>
    <person id="ped8" depart="17.41">
        <walk edges="-30025540 -30025539#0 24730644#9 24730644#8 24730644#7 24730644#6 24730644#5 24730644#4 24730644#2 24730644#1 24730644#0 24730647#2 24730647#4"/>
    </person>
    <person id="ped9" depart="19.59">
        <walk edges="30029312#0 -30029312#0 -30029312#1 -30029312#3 -30029312#5 -30029312#6 206633608#1 -30029316 -204781439#0 -53083562 -102580576#3 -102580576#4"/>
    </person>
    <person id="ped10" depart="21.77">
        <walk edges="30029304 -30029294#0 -24730651#0 24730647#2 -24730644#0 -24730644#1 -24730644#2 -24730644#4 -24730644#5 -24730644#6 -24730644#7 -24730644#8 -24730644#9 -24730644#10 -24730644#11 -30025538 -30025536#1 -330222367#3 -330222367#2 -330222367#1 30024695 30024692#0"/>
    </person>
    <person id="ped13" depart="28.29">
        <walk edges="-24730644#12 -24730644#13 -24730644#14 -24730644#15 -24730644#17"/>
    </person>
    <person id="ped14" depart="30.47">
        <walk edges="30036607#0 24730644#18 -30024690#0 -30024690#1 24730642#10 24730653#3"/>
    </person>
    <person id="ped15" depart="32.65">
        <walk edges="30029309#0 -24730644#2 -27768547#0 -30025544#1 -30025544#0 -30036616#1 -330222367#7 30025543#0"/>
    </person>
    <person id="ped17" depart="37.00">
        <walk edges="-318477185#1 -318477185#0 24730644#15 24730644#17 24730644#18 24730644#19 24730644#21 24730644#22 24730644#23 24730644#24 24730775 331649600 319828651#0 24730725#2 24730725#4 24730640#1"/>
    </person>
    <person id="ped19" depart="41.35">
        <walk edges="30037016#0 24730644#4 24730644#5 24730644#6 24730644#7 24730644#8 24730644#9 24730644#10 24730644#11 24730644#12 24730644#13 24730644#14 24730644#15 24730644#17 24730644#18 24730644#19 24730644#21 24730644#22"/>
    </person>
    <person id="ped20" depart="43.53">
        <walk edges="30024706 -24730642#3 -24730642#4 -24730642#5 -24730642#6 -24730642#8 -24730642#9 -24730642#10 24730653#2 24730653#1 24730653#0 -24730644#12 -24730644#11 -24730644#10 -24730644#9 -24730644#8 -24730644#7 -24730644#6 -24730644#5 24730644#4 24730644#2 24730644#1 -30029309#2 206632634#1 -206632634#0"/>
    </person>
    <person id="ped21" depart="45.71">
        <walk edges="-30025545 -321823978#16 -30036616#2 330222367#8 330222367#9 330222367#10 330222367#11 330222367#12 24730647#4 -24730651#0 -30029294#0 -30029294#1"/>
    </person>
    <person id="ped22" depart="47.88">
        <walk edges="-24730642#1 -24730642#2 -24730642#3 -24730642#4 -24730642#5 -24730642#6 -24730642#8 -24730642#9 -24730642#10 24730653#2 24730653#1 24730653#0 -24730644#12 -24730644#11 -24730644#10 -24730644#9 -24730644#8 -30025550"/>
    </person>
    <person id="ped24" depart="52.24">
        <walk edges="28234118#1 35572872#1 -35572872#0 218164908#0 218164908#1 218164908#2 218164908#3 218164908#4 218164908#5 102580576#2 -53083562 -30025553#2 -30025553#1 -30025553#0 30037183 -204781440#0 204781440#1 -25649885#5 -25649885#4 -25649885#3 -30029361#6 -30029364 206410927#1 206410927#0 25649885#0 30029209#5 30029209#4 30029209#3 30029209#2 30029209#1 -30029206 -30037409#0"/>
    </person>
    <person id="ped25" depart="54.41">
        <walk edges="-30038533#0 -30029312#10 -30029312#9 -30029312#8 -30029312#7 -30029312#6 -30029312#5 -206632640#1 30036681 206632634#1 -30029309#2 24730644#1 24730644#2 24730644#4 24730644#5 24730644#6 24730644#7 24730644#8 24730644#9 24730644#10 24730644#11 24730644#12 24730644#13 24730644#14 24730644#15 30036607#1 -30025004"/>
    </person>
    <person id="ped28" depart="60.94">
        <walk edges="-30024676#0 30024675#2 -30024675#1 -30024675#0 -330222367#3 -30025536#1 -30025538 -24730644#11 -24730644#10 -24730644#9 30025542"/>
    </person>
    <person id="ped31" depart="67.47">
        <walk edges="24730642#3 30024704 -330222366#3 -30024710 -321823978#3 321823978#4 30024678#0 30024678#1"/>
    </person>
    <person id="ped33" depart="71.83">
        <walk edges="-30025546 321823978#15 321823978#16 321823978#17 321823978#18 321823978#20 321823978#21 333396429 30036615 -27768549#1 -27768549#0 191207584#4 191207584#5 -191207584#7 -191207584#8 -191207584#9"/>
    </person>
    <person id="ped35" depart="76.18">
        <walk edges="-30025006#1 30025006#2 -24730644#15 -24730644#14 -24730644#13 -24730653#0 -24730653#1 -24730653#2 -24730653#3 330222367#3"/>
    </person>
    <person id="ped36" depart="78.35">
        <walk edges="30037409#0 -30029206 -30029209#0 -191207584#10 -30029354#1"/>
    </person>
    <person id="ped38" depart="82.71">
        <walk edges="321823978#15 -321823978#16 -30036616#2 330222367#8 330222367#9 330222367#10 330222367#11 330222367#12 24730647#4 -24730651#0 -24730651#1 -24730651#2 24730651#3 24730651#4 24730651#6 24730651#7 24730651#8 24730651#10 -30029209#5 -30029209#4 -30029209#3 -30029356#0 -52919323"/>
    </person>
    <person id="ped40" depart="87.06">
        <walk edges="24730642#8 24730642#9 30036608 30024677#1 -30024677#0 -30024675#1 -30024674 30036609 321823978#6 321823978#7 321823978#8 321823978#9 321823978#10 321823978#11 321823978#12 321823978#14 321823978#15 321823978#16 321823978#17 321823978#18 321823978#20 321823978#21 333396429 30036615 -30029201 27768610#3 -30029203#0 -30029219"/>
    </person>
    <person id="ped41" depart="89.24">
        <walk edges="24730644#8 24730644#9 24730644#10 24730644#11 24730644#12 24730644#13 24730644#14 24730644#15 24730644#17 24730644#18 24730644#19 24730644#21 24730644#22 24730644#23 24730644#24 318477798#0"/>
    </person>
    <person id="ped42" depart="91.41">
        <walk edges="-321823978#17 -321823978#16 -321823978#15 -321823978#14 -30025543#0 -330222367#6 -30036612#1 -30036612#0 -24730644#10 -30025539#0 -30025539#1"/>
    </person>
    <person id="ped43" depart="93.59">
        <walk edges="83912881 -132942954 262239043#1 262239043#0 206411211#0"/>
    </person>
    <person id="ped44" depart="95.77">
        <walk edges="-24730644#11 -24730644#10 -24730644#9 -24730644#8 -24730644#7 -24730644#6 -24730644#5 -24730644#4 -24730644#2 -24730644#1 -24730644#0 24730647#2 -24730651#0 -24730651#1 -24730651#2 24730651#3 24730651#4 24730651#6 24730651#7 24730651#8 -206632637#0"/>
    </person>
    <person id="ped45" depart="97.94">
        <walk edges="-24730648 -30025544#1 27768547#1 -330222367#11 -330222367#12 24730647#4 191207584#0 191207584#1 191207584#2 191207584#4 191207584#5 191207584#7 27768610#1"/>
    </person>
    <person id="ped46" depart="100.12">
        <walk edges="30029287 -27768549#1 30036615 333396429 321823978#21 321823978#20 321823978#18 321823978#17 321823978#16 321823978#15 321823978#14 321823978#12 321823978#11 321823978#10 321823978#9 321823978#8 321823978#7 321823978#6 30036609 24730653#4 -330222367#2"/>
    </person>
    <person id="ped48" depart="104.47">
        <walk edges="626273507 626273506 -30025553#2 -53083562 102580576#2 218164908#5 218164908#4 218164908#3 218164908#2 218164908#1 218164908#0 -35572872#0 -35572872#1 -28234118#1 -28234118#2 -28234119 -28233736#2 207145445"/>
    </person>
    <person id="ped51" depart="111.00">
        <walk edges="30024677#1 330222367#1 330222367#0 330222366#6 330222366#5 330222366#4 330222366#3 330222366#1 330222366#0 331649598#1 -318477795 -318477797 318477798#3 24730643 95641233 -28233736#0 -28233736#1 -28233736#2 -28234119 -28234118#2 -28234118#1 -35572872#1 -35572872#0 218164908#0 218164908#1"/>
    </person>
    <person id="ped52" depart="113.18">
        <walk edges="-30029227#3 28404789#2 28404789#1 -28404789#0 319828651#3 319828651#4 28404779#1 28404778 28404780#0 28404788#1 28404777#3"/>
    </person>
    <person id="ped53" depart="115.36">
        <walk edges="-24730651#1 -24730651#0 24730647#4 330222367#12 330222367#11 -27768547#2 333396430 -333396428"/>
    </person>
    <person id="ped54" depart="117.53">
        <walk edges="-52919316#1 30029344#1 30029344#0 -52919321#0 -191207584#4 -191207584#2 191207584#1 191207584#0 24730647#2 24730644#0 24730644#1 24730644#2 24730644#4 24730644#5 24730644#6 24730644#7 24730644#8 24730644#9 24730644#10 24730644#11 24730644#12 333394468"/>
    </person>
    <person id="ped55" depart="119.71">
        <walk edges="30037184 204781441#1 204781440#1 -25649885#5 -25649885#4 -25649885#3 -30029361#6 -30029364 206410927#1 206410927#0 -25649885#0 -30029209#5 -30029209#4 -30029209#3 -30029209#2 -30029209#1 -30029209#0 191207584#11 -30029203#4 -30029203#2 -30029203#1 -30029219"/>
    </person>
    <person id="ped56" depart="121.88">
        <walk edges="204781441#0 30037183 30038533#3 -30038533#2 -30038533#1 30038533#0 -30029312#10 -30029312#9 -30029312#8 30029312#7 30029312#6 30029312#4 -30029312#3 -30029312#1 -30029312#0 -24730651#2 -24730651#1 -24730651#0 24730647#4 330222367#12 330222367#11 27768547#2 -321823978#21 -321823978#20 -321823978#18 -30026979 -30024681#2"/>
    </person>
    <person id="ped57" depart="124.06">
        <walk edges="321823978#12 -30025543#0 -330222367#7 -330222367#8 -330222367#9 -330222367#10 -330222367#11 -330222367#12 24730647#4 -24730651#0 -24730651#1 -24730651#2 30029312#0 -30037060 30037053#3 -30037055#0 30037056"/>
    </person>
    <person id="ped60" depart="130.59">
        <walk edges="30029209#2 30029209#3 30029209#4 30029209#5 25649885#0 206410927#0 206410927#1 -30029364 -30029361#6 -25649885#3 -25649885#4 -25649885#5 204781440#1 -204781440#0 30037183 -30025553#0 -30025553#1 -30025553#2 -53083562 102580576#2 218164908#5 218164908#4 218164908#3"/>
    </person>
    <person id="ped62" depart="134.94">
        <walk edges="-102580563 -28234119 -28234118#2 -28234118#1 -35572872#1 -35572872#0 218164908#0 218164908#1 218164908#2 218164908#3 218164908#4 218164908#5 102580576#2 -53083562 -30025553#2 -30025553#1 -30025553#0 30037183 -204781440#0 204781440#1 -25649885#5 -25649885#4 -25649885#3 -30029361#6 -30029361#5 -30029361#4"/>
    </person>
    <person id="ped64" depart="139.30">
        <walk edges="30038517 -30029210 -27768610#1 191207584#7 191207584#5 191207584#4 -30029297#0 -30029294#2 30029302#1 -30029302#0 -30029300#2 24730651#4 24730651#6 24730651#7 30029360"/>
    </person>
    <person id="ped65" depart="141.47">
        <walk edges="-30029312#6 -30029312#5 -206632640#1 30036681 206632634#1 -30029309#2 24730644#1 24730644#2 24730644#4 24730644#5 24730644#6 24730644#7 24730644#8 24730644#9 24730644#10 24730644#11 24730644#12 24730644#13 24730644#14 24730644#15 24730644#17 24730644#18 24730644#19 24730644#21 24730644#22 24730644#23 24730644#24 318477798#3 24730643 95641233 -28233736#0 -28233736#1 -207145445"/>
    </person>
    <person id="ped66" depart="143.65">
        <walk edges="30037409#1 -30029206 -30029209#0 -191207584#10 -191207584#9 -191207584#8 -191207584#7 191207584#5 191207584#4 191207584#2 191207584#1 191207584#0 24730647#4 330222367#12 330222367#11 330222367#10 330222367#9 330222367#8 330222367#7"/>
    </person>
    <person id="ped67" depart="145.83">
        <walk edges="-24730642#6 -24730642#8 -24730642#9 -24730642#10 24730653#2 24730653#1 24730653#0 -24730644#12 -24730644#11 -24730644#10 -24730644#9 -24730644#8 -24730644#7 -24730644#6 -24730644#5 -24730644#4 -24730644#2 -24730644#1 -24730644#0 24730647#2 191207584#0 191207584#1 191207584#2 191207584#4 191207584#5 191207584#7 191207584#8 191207584#9 191207584#10"/>
    </person>
    <person id="ped68" depart="148.00">
        <walk edges="-218164908#5 -102580576#2 -53083562 -30025553#2 -30025553#1 -30025553#0 30037183 -204781440#0 204781440#1 -25649885#5 -25649885#4 -25649885#3 -30029361#6 -30029364 206410927#1 206410927#0 25649885#0 30029209#5 30029209#4 30029209#3 30029209#2 30029209#1 30029209#0"/>
    </person>
    <person id="ped69" depart="150.18">
        <walk edges="30029209#5 25649885#0 206410927#0 206410927#1 -30029364 -30029361#6 -25649885#3 -25649885#4"/>
    </person>
    <person id="ped72" depart="156.71">
        <walk edges="-330222367#2 24730653#3 24730653#2 24730653#1 24730653#0 -24730644#13 -24730644#14 -24730644#15 -30025006#2"/>
    </person>
    <person id="ped73" depart="158.89">
        <walk edges="218164908#3 218164908#4 218164908#5 102580576#2 -53083562 -204781439#0 -30029316 206633608#1 -30029312#6 -30029312#5 -30029312#3 -30029312#1 -30029312#0 -24730651#2 -24730651#1 -24730651#0 24730647#4 -330222367#12 -330222367#11 -330222367#10 -330222367#9 -330222367#8 -330222367#7 30025543#0"/>
    </person>
    <person id="ped74" depart="161.06">
        <walk edges="-30024711 -330222366#0 -330222366#1 -330222366#3 -330222366#4 -330222366#5 -330222366#6 -330222367#0 -330222367#1 -330222367#2 -330222367#3 -30025536#1 -30025538 -24730644#11 -24730644#10 -24730644#9 -24730644#8 -24730644#7 -24730644#6 -24730644#5 24730644#4 24730644#2 24730644#1 -30029309#2 206632634#1 30036681 -206632640#1 -30029312#5 -30029312#6 206633608#1 -30029316"/>
    </person>
    <person id="ped77" depart="167.59">
        <walk edges="-24730653#2 -24730653#3 -330222367#3 -330222367#4 -330222367#5 -330222367#6 30025543#1 -30025543#2"/>
    </person>
    <person id="ped78" depart="169.77">
        <walk edges="-30036609 -321823978#6 -321823978#7 -321823978#8 -321823978#9 -321823978#10 -321823978#11 -321823978#12 -30025543#0 -330222367#7 -330222367#8 -330222367#9 -330222367#10 -330222367#11 -330222367#12 24730647#1 24730647#2"/>
    </person>
    <person id="ped79" depart="171.94">
        <walk edges="-30025547 -30025543#0 -330222367#6 -30036612#1 -30036612#0 -24730644#10 -30025539#0 -30025540"/>
    </person>
    <person id="ped80" depart="174.12">
        <walk edges="-218164911 218164908#1 218164908#0 -35572872#0 -35572872#1 -28234118#1 -28234118#2 -28234119 28233736#2 28233736#1"/>
    </person>
    <person id="ped81" depart="176.30">
        <walk edges="-30025546 -321823978#14 -30025543#0 -330222367#6 -30036612#1 -30036612#0 -24730644#11 -24730644#12 24730644#13 -318477190#0 -318477190#1 320378786"/>
    </person>
    <person id="ped82" depart="178.47">
        <walk edges="30036621 30036681 -206632640#1 -30029312#5 -30029312#6 206633608#1 -30029316 -204781439#0 -53083562 102580576#2 218164908#5 218164908#4 218164908#3 218164908#2 218164908#1 -218164910"/>
    </person>
    <person id="ped85" depart="185.00">
        <walk edges="330222366#6 -30024698 -24730642#6 -24730642#8 -24730642#9 -30024690#1 30025006#0 -30025006#1 30025006#2 -24730644#15 24730644#15"/>
    </person>
    <person id="ped87" depart="189.36">
        <walk edges="30029309#1 24730644#2 24730644#4 -24730644#5 -24730644#6 -24730644#7 -24730644#8 -24730644#9 -24730644#10 -24730644#11 -24730644#12 24730653#0 24730653#1 24730653#2 -24730642#10 -30024690#1"/>
    </person>
    <person id="ped88" depart="191.53">
        <walk edges="-24730644#18 -30024718 -24730642#8 -24730642#6 -24730642#5 -24730642#4 -24730642#3 -24730642#2 -24730642#1 -24730642#0 -331649598#0"/>
    </person>
    <person id="ped89" depart="193.71">
        <walk edges="-330222367#3 -30025536#1 -30025538 -24730644#11 -24730644#10 -24730644#9 -24730644#8 -24730644#7 -24730644#6 -24730644#5 24730644#4 24730644#2 24730644#1 -30029309#2 206632634#1 30036681 -206632640#1 -30029312#5 -30029312#6 206633608#1 -30029316 -204781439#0 -53083562 102580576#2"/>
    </person>
    <person id="ped90" depart="195.89">
        <walk edges="30025542 -24730644#9 -24730644#10 -24730644#11 -24730644#12 24730644#13 24730644#14 24730644#15 24730644#17 24730644#18 24730644#19 24730644#21 24730644#22 24730644#23 24730644#24 318477798#0 30023944"/>
    </person>
    <person id="ped91" depart="198.06">
        <walk edges="52919316#1 30029344#1 30029344#0 -52919321#0 -191207584#4 -191207584#2 191207584#1 191207584#0 24730647#2 -24730644#0 -24730644#1 -24730644#2 -24730644#4 -24730644#5 -24730644#6 -24730644#7 -24730644#8 -24730644#9 -24730644#10 -24730644#11 -24730644#12 -24730644#13 -24730644#14 -24730644#15 -24730644#17 -24730644#18 -24730644#19"/>
    </person>
    <person id="ped92" depart="200.24">
        <walk edges="-321823978#20 -30026980#1 330222367#9 -330222367#8 -330222367#7 -330222367#6 -30036612#1 -30036612#0 -24730644#11 -24730644#12 -333394468 333394467 -30036610"/>
    </person>
    <person id="ped93" depart="202.42">
        <walk edges="30037016#0 24730644#2 24730644#1 24730644#0 24730647#2 191207584#0 191207584#1 191207584#2 191207584#4 191207584#5 191207584#7 -27768610#1 -30029210 -30029203#2"/>
    </person>
    <person id="ped96" depart="208.95">
        <walk edges="-30029203#4 191207584#11 191207584#10 191207584#9 191207584#8 -27768610#1 -27768610#2 -30029201 30036615 333396429 321823978#21 321823978#20 321823978#18 321823978#17 321823978#16 321823978#15 321823978#14 321823978#12 321823978#11 -30024683#4 -30024683#3 -30024678#1 30024678#0 321823978#5"/>
    </person>
    <person id="ped97" depart="211.12">
        <walk edges="-35573057 102580576#1 102580576#2 -53083562 -204781439#0 -30029316 206633608#1 -30029312#6 -30029312#5 -206632640#1 30036681 206632634#1 -30029309#2 24730644#1 24730644#2 30037016#0"/>
    </person>
    <person id="ped99" depart="215.48">
        <walk edges="95641233 24730643 318477798#3 24730644#24 24730644#23 24730644#22 24730644#21 24730644#19 24730644#18 24730644#17 24730644#15 24730644#14 24730644#13 24730644#12 24730644#11 24730644#10 24730644#9 24730644#8 24730644#7 24730644#6 24730644#5 24730644#4 24730644#2 24730644#1 -30029309#2 206632634#1 -206632634#0 -30029292#1 -30029292#2 -206632633 -30037055#0 -30037055#1 -30029361#2 30029361#3"/>
    </person>
    <person id="ped101" depart="219.83">
        <walk edges="30036607#1 24730644#15 24730644#14 24730644#13 -24730653#0 -24730653#1 -24730653#2 -24730653#3 -24730653#4 -30024674"/>
    </person>
    <person id="ped102" depart="222.00">
        <walk edges="191207584#10 191207584#9 191207584#8 191207584#7 191207584#5 191207584#4 191207584#2 191207584#1 191207584#0 24730647#2 -24730644#0 -24730644#1 -24730644#2 -24730644#4 -24730644#5 -24730644#6 -24730644#7 -24730644#8 -24730644#9 -24730644#10 -24730644#11 -30025538 -30025536#0"/>
    </person>
    <person id="ped103" depart="224.18">
        <walk edges="-321823978#18 -321823978#17 -321823978#16 -321823978#15 -321823978#14 -321823978#12 -321823978#11 -321823978#10 -321823978#9 -321823978#8 -321823978#7 -321823978#6 30036609 -30024674 -30024675#1 -30024677#0 30024677#1 330222367#1 330222367#0 330222366#6 330222366#5 330222366#4 330222366#3 330222366#1 330222366#0 331649598#1 -318477795 -318477797 318477798#3 24730643 95641233 -28233736#0 -28233736#1 -207145445"/>
    </person>
    <person id="ped104" depart="226.36">
        <walk edges="-318477185#1 -318477185#0 24730644#14 24730644#13 24730644#12 24730644#11 24730644#10 24730644#9 24730644#8 24730644#7 24730644#6 24730644#5 24730644#4 24730644#2 24730644#1 24730644#0 24730647#2 191207584#0 191207584#1 -191207584#2 -191207584#4 -52919321#0 30029344#0 30029344#1 -52919316#1 52919316#2"/>
    </person>
    <person id="ped105" depart="228.53">
        <walk edges="-30029227#1 -30029236 -28404800#1 -30029232#2 30029237#2"/>
    </person>
    <person id="ped106" depart="230.71">
        <walk edges="-52919316#2 -52919316#1 30029344#1 30029344#0 -52919321#0 -191207584#4 -191207584#2 191207584#1 191207584#0 24730647#2 -24730644#0 -24730644#1 -24730644#2 -24730644#4 -24730644#5 -24730644#6 -24730644#7 -24730644#8 -24730644#9 -24730644#10 -24730644#11 -30025538 -30025536#1 -330222367#3 -330222367#2"/>
    </person>
    <person id="ped108" depart="235.06">
        <walk edges="24730642#10 -30024690#1 30025006#0 30025006#1"/>
    </person>
    <person id="ped111" depart="241.59">
        <walk edges="218164910 -218164908#1 218164908#2 218164908#3 218164908#4 218164908#5 102580576#2 -53083562 -204781439#0 -30029316 206633608#1 -30029312#6 -30029312#5 -30029312#3 -30029312#1 -30029312#0 -24730651#2 -24730651#1 -24730651#0 24730647#4 330222367#12 330222367#11 27768547#2 -321823978#21 -321823978#20 30026975"/>
    </person>
    <person id="ped112" depart="243.77">
        <walk edges="-207145441 28234118#2 28234118#3 -28233736#2 -28233736#1 -28233736#0 95641233 24730643 318477798#3 24730644#24 24730644#23 24730644#22 24730644#21 24730644#19 24730644#18 24730644#17 24730644#15 24730644#14 24730644#13 24730644#12 24730644#11 24730644#10 24730644#9 24730644#8"/>
    </person>
    <person id="ped113" depart="245.95">
        <walk edges="205878747#0 205878748 -377123627 -53083562 -204781439#0 -30029316 206633608#1 -30029312#6 -30029312#5 -206632640#1 30036681 206632634#1 -30029309#2 24730644#1 24730644#2 24730644#4 -24730644#5 -24730644#6 -24730644#7 -24730644#8 -24730644#9 -24730644#10 30036612#0"/>
    </person>
    <person id="ped115" depart="250.30">
        <walk edges="-24730642#10 -24730653#3 -24730653#4 -30036609 -321823978#6 -321823978#7 -321823978#8 -321823978#9 321823978#10 -30024683#4"/>
    </person>
    <person id="ped116" depart="252.48">
        <walk edges="24730651#3 -24730651#2 -24730651#1 -24730651#0 24730647#2 -24730644#0 -24730644#1 -24730644#2 -24730644#4 -24730644#5 -24730644#6 -24730644#7 -24730644#8 -24730644#9 -24730644#10 -24730644#11 -30025538 -30025536#1 -330222367#3 30024675#0"/>
    </person>
    <person id="ped117" depart="254.65">
        <walk edges="-30025553#0 30037183 30038533#3 -30038533#2 -30038533#1 30038533#0 -30029312#10 -30029312#9 -30029312#8 -30029312#7 -30029312#6 -30029312#5 -206632640#1 30036681 206632634#1 -30029309#2 24730644#1 24730644#2 24730644#4 -24730644#5 -24730644#6 -24730644#7 -24730644#8 -24730644#9 -24730644#10 -24730644#11 -24730644#12 -24730653#0 -24730653#1"/>
    </person>
    <person id="ped118" depart="256.83">
        <walk edges="318477185#1 -318477185#0 24730644#14 24730644#13 -24730644#12 -24730644#11 -30036612#0 -30036612#1 -330222367#6 -330222367#7 -330222367#8 330222367#9 -30026980#1 321823978#21 333396429 30036615 -30029201"/>
    </person>
    <person id="ped120" depart="261.18">
        <walk edges="-330222367#10 27768547#1 27768547#0 -24730644#4 -24730644#5 -24730644#6 24730644#7"/>
    </person>
    <person id="ped121" depart="263.36">
        <walk edges="206632640#1 30036681 206632634#1 -30029309#2 24730644#1 24730644#2 24730644#4 -24730644#5 -24730644#6 -24730644#7 -24730644#8 -24730644#9 -24730644#10 -24730644#11 -30025538 -30025536#1 -330222367#3 330222367#2 330222367#1 330222367#0 330222366#6 330222366#5"/>
    </person>
    <person id="ped122" depart="265.53">
        <walk edges="-30024714#1 24730644#21 30025004"/>
    </person>
    <person id="ped123" depart="267.71">
        <walk edges="-30026974#1 -24730644#6 30025551 -30025543#2 30025543#1 -30025543#0 -321823978#12"/>
    </person>
    <person id="ped125" depart="272.06">
        <walk edges="-30029356#0 -30029209#3 -30029209#4 -30029209#5 24730651#10 24730651#8 24730651#7 24730651#6 24730651#4 24730651#3 -24730651#2 -24730651#1 -24730651#0 24730647#4 330222367#12 330222367#11 330222367#10 30026980#1"/>
    </person>
    <person id="ped126" depart="274.24">
        <walk edges="-218164912 -218164908#4 218164908#5 102580576#2 -53083562 -30025553#2 -30025553#1 -30025553#0 30037183 -204781440#0 204781440#1 -25649885#5 -25649885#4 -25649885#3 -30029361#6 -30029364 206410927#1 206410927#0 -25649885#0 -30029209#5 -30029209#4 -30029209#3 -30029356#0 -52919323"/>
    </person>
    <person id="ped127" depart="276.42">
        <walk edges="83912907 83912881 -30029360 -24730651#8 -30029361#0 30029361#1 -30029361#2 -30038528#0 -30038528#1 -30029312#10 30038533#0 -30038533#1 -30038533#2 30038533#3 30037183 -30025553#0 -30025553#1 626273506 626273507"/>
    </person>
    <person id="ped128" depart="278.59">
        <walk edges="-218164913#0 -218164914#0 -218164912 218164908#3 218164908#2 218164908#1 218164908#0 -35572872#0 -35572872#1 -28234118#1 -28234118#2 -28234119 -28233736#2 -28233736#1 -28233736#0 95641233 24730643 318477798#3 24730644#24 -24730644#23 -24730644#22 -24730644#21 -24730644#19 -24730644#18 -30024690#0 30025006#0 -30025006#1 -30025534"/>
    </person>
    <person id="ped130" depart="282.95">
        <walk edges="30038528#1 30038528#0"/>
    </person>
    <person id="ped132" depart="287.30">
        <walk edges="30029361#1 -30037054 30037053#4 -206632633 -30029292#2 -30029292#1 -206632634#0 206632634#1 -30029309#2 24730644#1 24730644#2 24730644#4 -24730644#5 -24730644#6 -24730644#7 -24730644#8 -24730644#9 -24730644#10 -24730644#11 -24730644#12 -24730653#0 -24730653#1 -24730653#2 24730642#10 24730642#9 24730642#8 24730642#6 24730642#5 24730642#4 30024704"/>
    </person>
    <person id="ped133" depart="289.48">
        <walk edges="25649885#2 25649885#1 25649885#0 24730651#10 24730651#8 -30029360 83912881 -132942954 52919321#1"/>
    </person>
    <person id="ped135" depart="293.83">
        <walk edges="30029312#7 -30029312#6 -30029312#5 -206632640#1 30036681 206632634#1 -30029309#2 -24730644#1 -30029309#0"/>
    </person>
    <person id="ped137" depart="298.18">
        <walk edges="-27768547#0 -27768547#1 -330222367#11 -330222367#12 24730647#4 -24730651#0 -24730651#1 -24730651#2 -24730651#3 -24730651#4"/>
    </person>
    <person id="ped138" depart="300.36">
        <walk edges="-24730644#8 -24730644#9 -24730644#10 -24730644#11 -30025538 -30025536#1 -330222367#3 -330222367#2 -330222367#1 -330222367#0 -330222366#6 -330222366#5 -330222366#4 -330222366#3 -330222366#1 -330222366#0 -331649598#1 24730642#0"/>
    </person>
    <person id="ped139" depart="302.54">
        <walk edges="-30029232#4 -30444184#1 28404800#5 -28404789#0 319828651#2 24730725#0"/>
    </person>
    <person id="ped140" depart="304.71">
        <walk edges="30025006#1 30025006#0 -30024690#0 24730644#18 24730644#19 24730644#21 -30024714#1"/>
    </person>
    <person id="ped142" depart="309.07">
        <walk edges="191207584#13 191207584#12 191207584#11 191207584#10 191207584#9 191207584#8 191207584#7 191207584#5 191207584#4 191207584#2 191207584#1 191207584#0 24730647#2 24730644#0 24730644#1 24730644#2 24730644#4 24730644#5 24730644#6 24730644#7 24730644#8 24730644#9 24730644#10 24730644#11 24730644#12 24730644#13 -318477190#0 -318477190#1 320378786"/>
    </person>
    <person id="ped143" depart="311.24">
        <walk edges="30036364#0 30036615 333396429 321823978#21 -30026980#1 330222367#9 -330222367#8 -330222367#7 -330222367#6 -30036612#1 -30036612#0 -24730644#11 -24730644#12"/>
    </person>
    <person id="ped145" depart="315.59">
        <walk edges="-102580576#1 102580576#2 -53083562 -204781439#0 -30029316 206633608#1 -30029312#6 -30029312#5 -30029312#3 -30029312#1 -30029312#0 -24730651#2 24730651#1 -30029294#0 -30029294#1 -30029294#2 -30029297#0 -27768549#0 -27768549#1 -30029201 27768610#3 -30029203#0 30029219"/>
    </person>
    <person id="ped146" depart="317.77">
        <walk edges="28234118#3 -28233736#2 -28233736#1 -28233736#0 95641233 24730643 318477798#3 -318477797 -318477795 331649598#1 330222366#0 330222366#1 330222366#3 330222366#4 330222366#5 330222366#6 330222367#0 330222367#1 30024677#1 -30024677#0 -30024675#1 -30024674 30036609 321823978#6 321823978#7 321823978#8 321823978#9 321823978#10 321823978#11 321823978#12 321823978#14 321823978#15 321823978#16 321823978#17 321823978#18 321823978#20 321823978#21 333396429 30036615 -30029201 27768610#3 -30029203#0 -30029219 -30029217#1"/>
    </person>
    <person id="ped147" depart="319.95">
        <walk edges="30025550 30025543#1 -30025543#0 -321823978#12 -321823978#11 -321823978#10 -321823978#9 -321823978#8 -321823978#7 -321823978#6 30036609 -30024674 -30024675#1 -30024677#0 30024677#1 330222367#1 330222367#0 330222366#6 330222366#5 330222366#4 330222366#3 330222366#1 330222366#0 331649598#1 -318477795 -318477797 24730775 331649600 319828651#0 24730725#2 24730725#4 24730640#0"/>
    </person>
    <person id="ped148" depart="322.12">