<?xml version="1.0" encoding="UTF-8"?>
<!-- generated on 2018-10-15 11:34:29.161255 by $Id$ via randomTrips.py
  options: 
-->
<routes xmlns:xsi="http://www.w3.org/2001/XMLSchema-instance" xsi:noNamespaceSchemaLocation="http://sumo.dlr.de/xsd/routes_file.xsd">
    <vType id="bicycle" speedFactor="normc(1.00,0.10,0.20,2.00)" vClass="bicycle">
    </vType>
    <trip id="bike0" depart="0.00" departLane="best" from="24730644#5" to="-191207584#12" type="bicycle"/>
    <trip id="bike1" depart="3.70" departLane="best" from="-30025551" to="-30025553#1" type="bicycle"/>
    <trip id="bike2" depart="7.40" departLane="best" from="30024683#2" to="30024692#0" type="bicycle"/>
    <trip id="bike3" depart="11.10" departLane="best" from="30037054" to="-24730644#13" type="bicycle"/>
    <trip id="bike4" depart="14.80" departLane="best" from="-30037409#1" to="-191207584#5" type="bicycle"/>
    <trip id="bike5" depart="18.51" departLane="best" from="-30024701" to="206632640#0" type="bicycle"/>
    <trip id="bike6" depart="22.21" departLane="best" from="-191207584#1" to="-30024711" type="bicycle"/>
    <trip id="bike7" depart="25.91" departLane="best" from="24730647#4" to="24730640#1" type="bicycle"/>
    <trip id="bike8" depart="29.61" departLane="best" from="-30024704" to="24730651#2" type="bicycle"/>
    <trip id="bike11" depart="40.71" departLane="best" from="-30029300#1" to="-28404800#5" type="bicycle"/>
    <trip id="bike12" depart="44.41" departLane="best" from="330222366#3" to="-30036616#3" type="bicycle"/>
    <trip id="bike13" depart="48.12" departLane="best" from="-218164915" to="-24730644#23" type="bicycle"/>
    <trip id="bike14" depart="51.82" departLane="best" from="30029312#10" to="24730775" type="bicycle"/>
    <trip id="bike16" depart="59.22" departLane="best" from="102580576#2" to="333396430" type="bicycle"/>
    <trip id="bike17" depart="62.92" departLane="best" from="-30029365" to="24730642#4" type="bicycle"/>
    <trip id="bike18" depart="66.62" departLane="best" from="30029292#2" to="27768549#0" type="bicycle"/>
    <trip id="bike19" depart="70.32" departLane="best" from="30029361#0" to="24730644#6" type="bicycle"/>
    <trip id="bike21" depart="77.72" departLane="best" from="-30024713" to="-30029309#2" type="bicycle"/>
    <trip id="bike22" depart="81.43" departLane="best" from="-218164908#0" to="-30029203#0" type="bicycle"/>
    <trip id="bike23" depart="85.13" departLane="best" from="-24730642#5" to="-30029297#0" type="bicycle"/>
    <trip id="bike24" depart="88.83" departLane="best" from="24730644#22" to="-318477185#0" type="bicycle"/>
    <trip id="bike25" depart="92.53" departLane="best" from="-30029361#2" to="-30025536#0" type="bicycle"/>
    <trip id="bike26" depart="96.23" departLane="best" from="-30025547" to="321823978#4" type="bicycle"/>
    <trip id="bike27" depart="99.93" departLane="best" from="24730647#2" to="25649885#4" type="bicycle"/>
    <trip id="bike29" depart="107.33" departLane="best" from="-27768610#2" to="-320378788#1" type="bicycle"/>
    <trip id="bike31" depart="114.74" departLane="best" from="191207584#11" to="30024707" type="bicycle"/>
    <trip id="bike32" depart="118.44" departLane="best" from="30029309#1" to="30029232#1" type="bicycle"/>
    <trip id="bike33" depart="122.14" departLane="best" from="-30024714#0" to="-191207584#8" type="bicycle"/>
    <trip id="bike35" depart="129.54" departLane="best" from="-30024688" to="330222366#0" type="bicycle"/>
    <trip id="bike36" depart="133.24" departLane="best" from="30036608" to="-30029361#6" type="bicycle"/>
    <trip id="bike37" depart="136.94" departLane="best" from="24730651#3" to="-321823978#4" type="bicycle"/>
    <trip id="bike39" depart="144.35" departLane="best" from="-30025546" to="-30029214" type="bicycle"/>
    <trip id="bike40" depart="148.05" departLane="best" from="191207584#4" to="-30029236" type="bicycle"/>
    <trip id="bike41" depart="151.75" departLane="best" from="206633608#0" to="30038536" type="bicycle"/>
    <trip id="bike42" depart="155.45" departLane="best" from="-30036616#1" to="-30025545" type="bicycle"/>
    <trip id="bike43" depart="159.15" departLane="best" from="53150116" to="206666011#0" type="bicycle"/>
    <trip id="bike44" depart="162.85" departLane="best" from="-218164914#0" to="-206632637#0" type="bicycle"/>
    <trip id="bike45" depart="166.55" departLane="best" from="-24730644#12" to="28233736#1" type="bicycle"/>
    <trip id="bike46" depart="170.25" departLane="best" from="30029204" to="-331649598#0" type="bicycle"/>
    <trip id="bike47" depart="173.96" departLane="best" from="-206666011#1" to="-321823978#1" type="bicycle"/>
    <trip id="bike48" depart="177.66" departLane="best" from="53150116" to="218164908#1" type="bicycle"/>
    <trip id="bike49" depart="181.36" departLane="best" from="330222367#5" to="30036614" type="bicycle"/>
    <trip id="bike50" depart="185.06" departLane="best" from="-132942954" to="30025543#0" type="bicycle"/>
    <trip id="bike51" depart="188.76" departLane="best" from="27768547#1" to="218164912" type="bicycle"/>
    <trip id="bike52" depart="192.46" departLane="best" from="-30025547" to="28404805#0" type="bicycle"/>
    <trip id="bike54" depart="199.86" departLane="best" from="-321823978#11" to="330222367#12" type="bicycle"/>
    <trip id="bike55" depart="203.57" departLane="best" from="30036608" to="-30029237#0" type="bicycle"/>
    <trip id="bike58" depart="214.67" departLane="best" from="-30029209#0" to="28404800#4" type="bicycle"/>
    <trip id="bike60" depart="222.07" departLane="best" from="30025006#2" to="218164914#0" type="bicycle"/>
    <trip id="bike61" depart="225.77" departLane="best" from="30025553#1" to="218164908#2" type="bicycle"/>
    <trip id="bike62" depart="229.47" departLane="best" from="-102580563" to="-30036609" type="bicycle"/>
    <trip id="bike64" depart="236.88" departLane="best" from="30036611" to="30029360" type="bicycle"/>
    <trip id="bike65" depart="240.58" departLane="best" from="-30029217#1" to="-218164908#1" type="bicycle"/>
    <trip id="bike66" depart="244.28" departLane="best" from="30036611" to="330222366#5" type="bicycle"/>
    <trip id="bike67" depart="247.98" departLane="best" from="-218164910" to="204781441#1" type="bicycle"/>
    <trip id="bike68" depart="251.68" departLane="best" from="-207145441" to="30029206" type="bicycle"/>
    <trip id="bike69" depart="255.38" departLane="best" from="30025538" to="-27430119#0" type="bicycle"/>
    <trip id="bike70" depart="259.08" departLane="best" from="-330222366#4" to="24730642#2" type="bicycle"/>
    <trip id="bike71" depart="262.78" departLane="best" from="-30025546" to="30037053#3" type="bicycle"/>
    <trip id="bike72" depart="266.49" departLane="best" from="-30038517" to="-30025538" type="bicycle"/>
    <trip id="bike73" depart="270.19" departLane="best" from="131945992" to="30025547" type="bicycle"/>
    <trip id="bike74" depart="273.89" departLane="best" from="-30024681#1" to="-30029361#3" type="bicycle"/>
    <trip id="bike75" depart="277.59" departLane="best" from="53083562" to="30024674" type="bicycle"/>
    <trip id="bike76" depart="281.29" departLane="best" from="-318477186#1" to="207145445" type="bicycle"/>
    <trip id="bike77" depart="284.99" departLane="best" from="-24730644#4" to="-30025553#2" type="bicycle"/>
    <trip id="bike78" depart="288.69" departLane="best" from="-30029297#1" to="24730651#10" type="bicycle"/>
    <trip id="bike79" depart="292.39" departLane="best" from="-30024714#1" to="-30025550" type="bicycle"/>
    <trip id="bike80" depart="296.10" departLane="best" from="-207145445" to="28234118#3" type="bicycle"/>
    <trip id="bike81" depart="299.80" departLane="best" from="-30024714#0" to="318477189" type="bicycle"/>
    <trip id="bike82" depart="303.50" departLane="best" from="30029356#0" to="-24730642#0" type="bicycle"/>
    <trip id="bike83" depart="307.20" departLane="best" from="-30025006#0" to="30024683#2" type="bicycle"/>
    <trip id="bike84" depart="310.90" departLane="best" from="-30024692#0" to="-27768549#0" type="bicycle"/>
    <trip id="bike85" depart="314.60" departLane="best" from="321823978#1" to="24730644#21" type="bicycle"/>
    <trip id="bike88" depart="325.70" departLane="best" from="-24730642#10" to="-35572872#0" type="bicycle"/>
    <trip id="bike89" depart="329.41" departLane="best" from="-30038517" to="191207584#0" type="bicycle"/>
    <trip id="bike90" depart="333.11" departLane="best" from="30024678#1" to="30024688" type="bicycle"/>
    <trip id="bike92" depart="340.51" departLane="best" from="-30037016#1" to="-30037053#2" type="bicycle"/>
    <trip id="bike93" depart="344.21" departLane="best" from="30029361#0" to="-30029217#0" type="bicycle"/>
    <trip id="bike94" depart="347.91" departLane="best" from="-30024675#2" to="102580576#2" type="bicycle"/>
    <trip id="bike95" depart="351.61" departLane="best" from="-30037409#1" to="-30029297#0" type="bicycle"/>
    <trip id="bike96" depart="355.31" departLane="best" from="-30025539#1" to="321823978#10" type="bicycle"/>
    <trip id="bike97" depart="359.02" departLane="best" from="-318477190#1" to="30036614" type="bicycle"/>
    <trip id="bike99" depart="366.42" departLane="best" from="95641233" to="30029361#3" type="bicycle"/>
    <trip id="bike100" depart="370.12" departLane="best" from="330222367#4" to="321823978#14" type="bicycle"/>
    <trip id="bike101" depart="373.82" departLane="best" from="30029312#11" to="-30024675#2" type="bicycle"/>
    <trip id="bike102" depart="377.52" departLane="best" from="-330222367#4" to="-30025543#0" type="bicycle"/>
    <trip id="bike103" depart="381.22" departLane="best" from="-30036616#2" to="-218164908#2" type="bicycle"/>
    <trip id="bike105" depart="388.62" departLane="best" from="-30025546" to="30029237#2" type="bicycle"/>
    <trip id="bike106" depart="392.33" departLane="best" from="-321823978#12" to="-331649598#1" type="bicycle"/>
    <trip id="bike107" depart="396.03" departLane="best" from="330222366#3" to="53150115" type="bicycle"/>
    <trip id="bike108" depart="399.73" departLane="best" from="191207584#10" to="30025542" type="bicycle"/>
    <trip id="bike109" depart="403.43" departLane="best" from="-27768547#0" to="-30029312#6" type="bicycle"/>
    <trip id="bike110" depart="407.13" departLane="best" from="330222367#3" to="24730644#7" type="bicycle"/>
    <trip id="bike112" depart="414.53" departLane="best" from="-206632638" to="24730647#4" type="bicycle"/>
    <trip id="bike113" depart="418.23" departLane="best" from="-35572872#0" to="30036607#0" type="bicycle"/>
    <trip id="bike114" depart="421.94" departLane="best" from="-27768549#0" to="330222367#8" type="bicycle"/>
    <trip id="bike115" depart="425.64" departLane="best" from="-218164908#0" to="-30024688" type="bicycle"/>
    <trip id="bike116" depart="429.34" departLane="best" from="218164908#3" to="30024690#1" type="bicycle"/>
    <trip id="bike117" depart="433.04" departLane="best" from="-30024717" to="-24730653#4" type="bicycle"/>
    <trip id="bike118" depart="436.74" departLane="best" from="30037053#3" to="-30029214" type="bicycle"/>
    <trip id="bike119" depart="440.44" departLane="best" from="218164908#3" to="27768549#1" type="bicycle"/>
    <trip id="bike120" depart="444.14" departLane="best" from="-30037183" to="24730647#2" type="bicycle"/>
    <trip id="bike121" depart="447.84" departLane="best" from="-52919323" to="321823978#3" type="bicycle"/>
    <trip id="bike122" depart="451.54" departLane="best" from="-30024681#4" to="30025541" type="bicycle"/>
    <trip id="bike123" depart="455.25" departLane="best" from="-30025006#0" to="-321823978#4" type="bicycle"/>
    <trip id="bike124" depart="458.95" departLane="best" from="25649885#0" to="-30029312#9" type="bicycle"/>
    <trip id="bike127" depart="470.05" departLane="best" from="83912881" to="626271197" type="bicycle"/>
    <trip id="bike128" depart="473.75" departLane="best" from="-207147909" to="-30025539#0" type="bicycle"/>
    <trip id="bike129" depart="477.45" departLane="best" from="-30025546" to="321823978#20" type="bicycle"/>
    <trip id="bike130" depart="481.15" departLane="best" from="30036612#1" to="30037056" type="bicycle"/>
    <trip id="bike131" depart="484.86" departLane="best" from="-30029361#2" to="-28404805#2" type="bicycle"/>
    <trip id="bike132" depart="488.56" departLane="best" from="30029297#0" to="30025534" type="bicycle"/>
    <trip id="bike134" depart="495.96" departLane="best" from="24730651#10" to="-132937955#1" type="bicycle"/>
    <trip id="bike136" depart="503.36" departLane="best" from="24730653#2" to="321823978#7" type="bicycle"/>
    <trip id="bike137" depart="507.06" departLane="best" from="-24730651#4" to="-24730653#0" type="bicycle"/>
    <trip id="bike138" depart="510.76" departLane="best" from="-24730644#1" to="24730642#5" type="bicycle"/>
    <trip id="bike139" depart="514.47" departLane="best" from="-30025549" to="25649885#0" type="bicycle"/>
    <trip id="bike140" depart="518.17" departLane="best" from="30023944" to="-30024717" type="bicycle"/>
    <trip id="bike141" depart="521.87" departLane="best" from="24730644#21" to="-30029237#1" type="bicycle"/>
    <trip id="bike142" depart="525.57" departLane="best" from="-330222367#7" to="318477189" type="bicycle"/>
    <trip id="bike143" depart="529.27" departLane="best" from="30029312#1" to="-24730644#19" type="bicycle"/>
    <trip id="bike144" depart="532.97" departLane="best" from="-30038517" to="-30029294#1" type="bicycle"/>
    <trip id="bike145" depart="536.67" departLane="best" from="-102580576#1" to="30029217#1" type="bicycle"/>
    <trip id="bike146" depart="540.37" departLane="best" from="24730644#24" to="-30029236" type="bicycle"/>
    <trip id="bike147" depart="544.07" departLane="best" from="30024690#0" to="24730642#4" type="bicycle"/>
    <trip id="bike150" depart="555.18" departLane="best" from="30038528#1" to="24730640#1" type="bicycle"/>
    <trip id="bike151" depart="558.88" departLane="best" from="30029300#0" to="24730647#1" type="bicycle"/>
    <trip id="bike152" depart="562.58" departLane="best" from="-25649885#4" to="-27369330#0" type="bicycle"/>
    <trip id="bike153" depart="566.28" departLane="best" from="-30029217#1" to="30444184#1" type="bicycle"/>
    <trip id="bike154" depart="569.98" departLane="best" from="30029209#2" to="30036614" type="bicycle"/>
    <trip id="bike155" depart="573.68" departLane="best" from="30037183" to="-30025536#0" type="bicycle"/>
    <trip id="bike156" depart="577.39" departLane="best" from="-30025539#1" to="-24730644#8" type="bicycle"/>
    <trip id="bike157" depart="581.09" departLane="best" from="30025553#2" to="30037184" type="bicycle"/>
    <trip id="bike158" depart="584.79" departLane="best" from="-30037053#1" to="27768550" type="bicycle"/>
    <trip id="bike159" depart="588.49" departLane="best" from="-27768547#0" to="321823978#17" type="bicycle"/>
    <trip id="bike160" depart="592.19" departLane="best" from="30029361#3" to="35572872#0" type="bicycle"/>
    <trip id="bike162" depart="599.59" departLane="best" from="-191207584#0" to="30025550" type="bicycle"/>
    <trip id="bike163" depart="603.29" departLane="best" from="-30029294#0" to="321823978#18" type="bicycle"/>
    <trip id="bike164" depart="606.99" departLane="best" from="30029217#0" to="30036616#2" type="bicycle"/>
    <trip id="bike166" depart="614.40" departLane="best" from="30029203#0" to="-24730651#10" type="bicycle"/>
    <trip id="bike167" depart="618.10" departLane="best" from="30036363#3" to="30036612#1" type="bicycle"/>
    <trip id="bike168" depart="621.80" departLane="best" from="-30024706" to="30029312#6" type="bicycle"/>
    <trip id="bike169" depart="625.50" departLane="best" from="-321823978#18" to="-30029356#0" type="bicycle"/>
    <trip id="bike170" depart="629.20" departLane="best" from="30029209#1" to="-30026977" type="bicycle"/>
    <trip id="bike172" depart="636.60" departLane="best" from="-30029287" to="30036616#2" type="bicycle"/>
    <trip id="bike173" depart="640.31" departLane="best" from="330222367#2" to="-30029300#0" type="bicycle"/>
    <trip id="bike174" depart="644.01" departLane="best" from="24730644#7" to="-321823978#8" type="bicycle"/>
    <trip id="bike175" depart="647.71" departLane="best" from="333396429" to="218164910" type="bicycle"/>
    <trip id="bike176" depart="651.41" departLane="best" from="321823978#14" to="-24730653#0" type="bicycle"/>
    <trip id="bike177" depart="655.11" departLane="best" from="330222367#5" to="-30024681#4" type="bicycle"/>
    <trip id="bike178" depart="658.81" departLane="best" from="330222367#1" to="-30029237#2" type="bicycle"/>
    <trip id="bike180" depart="666.21" departLane="best" from="30024678#1" to="-30029361#5" type="bicycle"/>
    <trip id="bike182" depart="673.62" departLane="best" from="-30036364#1" to="24730644#5" type="bicycle"/>
    <trip id="bike183" depart="677.32" departLane="best" from="-30025541" to="30025537" type="bicycle"/>
    <trip id="bike184" depart="681.02" departLane="best" from="-102580563" to="321823978#12" type="bicycle"/>
    <trip id="bike185" depart="684.72" departLane="best" from="131945992" to="30025542" type="bicycle"/>
    <trip id="bike186" depart="688.42" departLane="best" from="30024690#0" to="30024683#4" type="bicycle"/>
    <trip id="bike187" depart="692.12" departLane="best" from="-30029356#1" to="-218164914#1" type="bicycle"/>
    <trip id="bike188" depart="695.82" departLane="best" from="24730653#3" to="-30036612#1" type="bicycle"/>
    <trip id="bike190" depart="703.23" departLane="best" from="30024675#0" to="-30029312#9" type="bicycle"/>
    <trip id="bike191" depart="706.93" departLane="best" from="-30029219" to="-330222367#0" type="bicycle"/>
    <trip id="bike192" depart="710.63" departLane="best" from="-30036616#3" to="-30029312#5" type="bicycle"/>
    <trip id="bike193" depart="714.33" departLane="best" from="-24730644#9" to="-330222367#8" type="bicycle"/>
    <trip id="bike194" depart="718.03" departLane="best" from="321823978#15" to="30024692#1" type="bicycle"/>
    <trip id="bike195" depart="721.73" departLane="best" from="30038528#0" to="27768547#0" type="bicycle"/>
    <trip id="bike196" depart="725.43" departLane="best" from="-30029209#3" to="24730642#1" type="bicycle"/>
    <trip id="bike197" depart="729.13" departLane="best" from="-102580563" to="-30029309#0" type="bicycle"/>
    <trip id="bike198" depart="732.84" departLane="best" from="-30038533#2" to="24730644#8" type="bicycle"/>
    <trip id="bike200" depart="740.24" departLane="best" from="-318477190#0" to="-30025543#0" type="bicycle"/>
    <trip id="bike201" depart="743.94" departLane="best" from="-330222366#1" to="318477185#1" type="bicycle"/>
    <trip id="bike202" depart="747.64" departLane="best" from="30029209#2" to="-30024677#0" type="bicycle"/>
    <trip id="bike203" depart="751.34" departLane="best" from="-218164908#5" to="207145441" type="bicycle"/>
    <trip id="bike204" depart="755.04" departLane="best" from="24730644#2" to="-30036616#2" type="bicycle"/>
    <trip id="bike206" depart="762.44" departLane="best" from="25649885#1" to="-30025553#2" type="bicycle"/>
    <trip id="bike207" depart="766.15" departLane="best" from="-30024678#1" to="-191207584#11" type="bicycle"/>
    <trip id="bike208" depart="769.85" departLane="best" from="-30025536#1" to="191207584#4" type="bicycle"/>
    <trip id="bike209" depart="773.55" departLane="best" from="30029312#3" to="-24730642#1" type="bicycle"/>
    <trip id="bike210" depart="777.25" departLane="best" from="-30037056" to="28234118#1" type="bicycle"/>
    <trip id="bike211" depart="780.95" departLane="best" from="-30024676#1" to="30024717" type="bicycle"/>
    <trip id="bike212" depart="784.65" departLane="best" from="-333391109" to="-30029209#5" type="bicycle"/>
    <trip id="bike213" depart="788.35" departLane="best" from="24730651#3" to="-102580576#3" type="bicycle"/>
    <trip id="bike214" depart="792.05" departLane="best" from="30024708" to="30029217#1" type="bicycle"/>
    <trip id="bike215" depart="795.76" departLane="best" from="-24730644#1" to="-333396429" type="bicycle"/>
    <trip id="bike218" depart="806.86" departLane="best" from="-30025539#0" to="30036363#3" type="bicycle"/>
    <trip id="bike219" depart="810.56" departLane="best" from="-321823978#15" to="30029297#1" type="bicycle"/>
    <trip id="bike221" depart="817.96" departLane="best" from="218164908#4" to="330222367#1" type="bicycle"/>
    <trip id="bike222" depart="821.66" departLane="best" from="30037053#4" to="27430119#0" type="bicycle"/>
    <trip id="bike223" depart="825.37" departLane="best" from="30024674" to="206632640#0" type="bicycle"/>
    <trip id="bike224" depart="829.07" departLane="best" from="30029294#0" to="24730642#1" type="bicycle"/>
    <trip id="bike225" depart="832.77" departLane="best" from="30037060" to="30026975" type="bicycle"/>
    <trip id="bike226" depart="836.47" departLane="best" from="-330222366#4" to="-30029232#2" type="bicycle"/>
    <trip id="bike227" depart="840.17" departLane="best" from="-30025537" to="28404800#3" type="bicycle"/>
    <trip id="bike228" depart="843.87" departLane="best" from="30025538" to="207147912" type="bicycle"/>
    <trip id="bike229" depart="847.57" departLane="best" from="24730644#13" to="-30029292#2" type="bicycle"/>
    <trip id="bike231" depart="854.97" departLane="best" from="-30025549" to="-30036363#3" type="bicycle"/>
    <trip id="bike232" depart="858.68" departLane="best" from="132937955#1" to="-28233736#1" type="bicycle"/>
    <trip id="bike233" depart="862.38" departLane="best" from="-30024715" to="30024715" type="bicycle"/>
    <trip id="bike235" depart="869.78" departLane="best" from="-30037053#2" to="218164915" type="bicycle"/>
    <trip id="bike236" depart="873.48" departLane="best" from="-30037058" to="-30025006#0" type="bicycle"/>
    <trip id="bike237" depart="877.18" departLane="best" from="-30037184" to="318477189" type="bicycle"/>
    <trip id="bike238" depart="880.88" departLane="best" from="206632640#1" to="30024716" type="bicycle"/>
    <trip id="bike239" depart="884.58" departLane="best" from="30029354#0" to="30029209#4" type="bicycle"/>
    <trip id="bike240" depart="888.29" departLane="best" from="-30036363#1" to="-102580576#3" type="bicycle"/>
    <trip id="bike241" depart="891.99" departLane="best" from="-30029312#3" to="30029201" type="bicycle"/>
    <trip id="bike242" depart="895.69" departLane="best" from="30029312#8" to="330222367#12" type="bicycle"/>
    <trip id="bike243" depart="899.39" departLane="best" from="-30037183" to="30026978" type="bicycle"/>
    <trip id="bike245" depart="906.79" departLane="best" from="-30024704" to="-30025545" type="bicycle"/>
    <trip id="bike246" depart="910.49" departLane="best" from="-318477185#1" to="-191207584#5" type="bicycle"/>
    <trip id="bike247" depart="914.19" departLane="best" from="-30029297#0" to="30024695" type="bicycle"/>
    <trip id="bike248" depart="917.89" departLane="best" from="-30037016#1" to="-30024675#0" type="bicycle"/>
    <trip id="bike249" depart="921.60" departLane="best" from="-321823978#6" to="-27369330#0" type="bicycle"/>
    <trip id="bike250" depart="925.30" departLane="best" from="24730644#1" to="-191207584#2" type="bicycle"/>
    <trip id="bike251" depart="929.00" departLane="best" from="-30036613" to="24730644#14" type="bicycle"/>
    <trip id="bike252" depart="932.70" departLane="best" from="-191207584#10" to="28404805#2" type="bicycle"/>
    <trip id="bike254" depart="940.10" departLane="best" from="-206632634#0" to="-320378788#1" type="bicycle"/>
    <trip id="bike255" depart="943.80" departLane="best" from="-30024688" to="-30036610" type="bicycle"/>
    <trip id="bike256" depart="947.50" departLane="best" from="30025006#0" to="-320378788#1" type="bicycle"/>
    <trip id="bike257" depart="951.21" departLane="best" from="30024710" to="30029360" type="bicycle"/>
    <trip id="bike258" depart="954.91" departLane="best" from="-30025540" to="-24730644#0" type="bicycle"/>
    <trip id="bike260" depart="962.31" departLane="best" from="95641233" to="-30037184" type="bicycle"/>
    <trip id="bike261" depart="966.01" departLane="best" from="24730648" to="30029237#0" type="bicycle"/>
    <trip id="bike262" depart="969.71" departLane="best" from="24730651#0" to="30029201" type="bicycle"/>
    <trip id="bike263" depart="973.41" departLane="best" from="321823978#4" to="-30024711" type="bicycle"/>
    <trip id="bike265" depart="980.81" departLane="best" from="-24730644#8" to="30024683#2" type="bicycle"/>
    <trip id="bike266" depart="984.52" departLane="best" from="191207584#7" to="-30025544#1" type="bicycle"/>
    <trip id="bike268" depart="991.92" departLane="best" from="-28234118#1" to="25649885#2" type="bicycle"/>
    <trip id="bike269" depart="995.62" departLane="best" from="30024701" to="-24730651#8" type="bicycle"/>
    <trip id="bike271" depart="1003.02" departLane="best" from="-24730644#10" to="-191207584#12" type="bicycle"/>
    <trip id="bike273" depart="1010.42" departLane="best" from="330222366#3" to="-321823978#5" type="bicycle"/>
    <trip id="bike275" depart="1017.83" departLane="best" from="28233736#2" to="28233736#1" type="bicycle"/>
    <trip id="bike276" depart="1021.53" departLane="best" from="-24730642#6" to="30029219" type="bicycle"/>
    <trip id="bike277" depart="1025.23" departLane="best" from="30029312#4" to="24730653#4" type="bicycle"/>
    <trip id="bike278" depart="1028.93" departLane="best" from="-24730644#4" to="422923795" type="bicycle"/>
    <trip id="bike279" depart="1032.63" departLane="best" from="30026974#0" to="-30037060" type="bicycle"/>
    <trip id="bike280" depart="1036.33" departLane="best" from="-30038533#1" to="-318477189" type="bicycle"/>
    <trip id="bike281" depart="1040.03" departLane="best" from="-35573057" to="-30037053#4" type="bicycle"/>
    <trip id="bike282" depart="1043.74" departLane="best" from="30029312#3" to="30029354#0" type="bicycle"/>
    <trip id="bike283" depart="1047.44" departLane="best" from="-24730644#0" to="330222367#8" type="bicycle"/>
    <trip id="bike284" depart="1051.14" departLane="best" from="24730644#22" to="30029358" type="bicycle"/>
    <trip id="bike286" depart="1058.54" departLane="best" from="30024681#4" to="333391109" type="bicycle"/>
    <trip id="bike287" depart="1062.24" departLane="best" from="-30025548" to="30029309#1" type="bicycle"/>
    <trip id="bike288" depart="1065.94" departLane="best" from="131945992" to="204781440#1" type="bicycle"/>
    <trip id="bike289" depart="1069.64" departLane="best" from="-318477185#0" to="30025547" type="bicycle"/>
    <trip id="bike290" depart="1073.34" departLane="best" from="-30025547" to="30036364#1" type="bicycle"/>
    <trip id="bike291" depart="1077.05" departLane="best" from="30029294#0" to="-24730644#12" type="bicycle"/>
    <trip id="bike292" depart="1080.75" departLane="best" from="30036615" to="-30029209#5" type="bicycle"/>
    <trip id="bike293" depart="1084.45" departLane="best" from="-321823978#4" to="25649885#5" type="bicycle"/>
    <trip id="bike294" depart="1088.15" departLane="best" from="-30029365" to="-191207584#4" type="bicycle"/>
    <trip id="bike295" depart="1091.85" departLane="best" from="30029312#4" to="-30024683#2" type="bicycle"/>
    <trip id="bike296" depart="1095.55" departLane="best" from="-30024690#0" to="30029294#2" type="bicycle"/>
    <trip id="bike297" depart="1099.25" departLane="best" from="-30029300#1" to="30037058" type="bicycle"/>
    <trip id="bike299" depart="1106.66" departLane="best" from="-132937955#1" to="330222366#6" type="bicycle"/>
    <trip id="bike300" depart="1110.36" departLane="best" from="-218164908#5" to="30025543#0" type="bicycle"/>
    <trip id="bike301" depart="1114.06" departLane="best" from="-330222367#7" to="30029203#4" type="bicycle"/>
    <trip id="bike302" depart="1117.76" departLane="best" from="28233736#2" to="28404805#5" type="bicycle"/>
    <trip id="bike303" depart="1121.46" departLane="best" from="-330222367#9" to="30029292#1" type="bicycle"/>
    <trip id="bike304" depart="1125.16" departLane="best" from="-218164915" to="-30025551" type="bicycle"/>
    <trip id="bike306" depart="1132.56" departLane="best" from="206632637#0" to="191207584#2" type="bicycle"/>
    <trip id="bike308" depart="1139.97" departLane="best" from="30024695" to="-30036613" type="bicycle"/>
    <trip id="bike310" depart="1147.37" departLane="best" from="-30025539#1" to="-25649885#0" type="bicycle"/>
    <trip id="bike311" depart="1151.07" departLane="best" from="-30024675#3" to="-24730653#4" type="bicycle"/>
    <trip id="bike312" depart="1154.77" departLane="best" from="102580576#2" to="30029209#1" type="bicycle"/>
    <trip id="bike314" depart="1162.17" departLane="best" from="-330222367#3" to="30025544#0" type="bicycle"/>
    <trip id="bike315" depart="1165.87" departLane="best" from="331649600" to="211260242#1" type="bicycle"/>
    <trip id="bike316" depart="1169.58" departLane="best" from="-30026977" to="-24730644#6" type="bicycle"/>
    <trip id="bike317" depart="1173.28" departLane="best" from="-30024676#1" to="-30026977" type="bicycle"/>
    <trip id="bike319" depart="1180.68" departLane="best" from="102580576#0" to="-30029292#2" type="bicycle"/>
    <trip id="bike320" depart="1184.38" departLane="best" from="330222367#8" to="24730642#5" type="bicycle"/>
    <trip id="bike321" depart="1188.08" departLane="best" from="28234118#2" to="-25649885#5" type="bicycle"/>
    <trip id="bike323" depart="1195.48" departLane="best" from="30036364#0" to="24730644#24" type="bicycle"/>
    <trip id="bike324" depart="1199.19" departLane="best" from="-321823978#8" to="-53083562" type="bicycle"/>
    <trip id="bike326" depart="1206.59" departLane="best" from="321823978#15" to="191207584#8" type="bicycle"/>
    <trip id="bike329" depart="1217.69" departLane="best" from="-206632637#1" to="-28404800#0" type="bicycle"/>