<?xml version="1.0" encoding="UTF-8"?>

<!-- generated on Mon Oct 15 11:34:26 2018 by SUMO polyconvert Version 0.32.0
<?xml version="1.0" encoding="UTF-8"?>

<configuration xmlns:xsi="http://www.w3.org/2001/XMLSchema-instance" xsi:noNamespaceSchemaLocation="http://sumo.dlr.de/xsd/polyconvertConfiguration.xsd">

    <input>
        <net-file value="/home/ajay/Downloads/sumo-0.32.0/tools/2018-10-15-11-34-24/osm.net.xml"/>
        <osm-files value="osm_bbox.osm.xml"/>
        <osm.keep-full-type value="true"/>
        <type-file value="/home/ajay/../../usr/local/share/sumo-0.32.0/data/typemap/osmPolyconvert.typ.xml"/>
    </input>

    <output>
        <output-file value="/home/ajay/Downloads/sumo-0.32.0/tools/2018-10-15-11-34-24/osm.poly.xml"/>
    </output>

    <processing>
        <poi-layer-offset value="5"/>
    </processing>

    <report>
        <verbose value="true"/>
    </report>

</configuration>
-->

<additional xmlns:xsi="http://www.w3.org/2001/XMLSchema-instance" xsi:noNamespaceSchemaLocation="http://sumo.dlr.de/xsd/additional_file.xsd">
    <location netOffset="-415219.12,-1435347.52" convBoundary="-1505.14,-1846.04,3472.72,4875.32" origBoundary="80.204367,12.965972,80.250254,13.026800" projParameter="+proj=utm +zone=44 +ellps=WGS84 +datum=WGS84 +units=m +no_defs"/>

    <poly id="102580568" type="landuse.commercial" color="209,209,204" fill="1" layer="-3.00" shape="2560.85,986.20 2546.36,818.05 2544.43,788.46 2775.34,804.65 2756.71,998.80 2737.45,1007.29 2726.27,972.99 2560.85,986.20"/>
    <poly id="102580647" type="building.commercial" color="255,230,230" fill="1" layer="-1.00" shape="2583.85,916.51 2654.54,912.79 2656.50,894.65 2656.89,891.10 2655.58,882.66 2653.76,871.09 2578.29,875.00 2576.34,896.76 2583.85,916.51"/>
    <poly id="174517732" type="leisure.pitch" color="207,245,201" fill="1" layer="-2.00" shape="1426.49,533.98 1417.50,512.70 1426.51,508.94 1435.50,530.23 1426.49,533.98"/>
    <poly id="174517732#1" type="sport.tennis" color="79,230,125" fill="1" layer="-2.00" shape="1426.49,533.98 1417.50,512.70 1426.51,508.94 1435.50,530.23 1426.49,533.98"/>
    <poly id="174517733" type="leisure.pitch" color="207,245,201" fill="1" layer="-2.00" shape="1392.44,548.28 1383.53,527.09 1392.55,523.34 1401.47,544.53 1392.44,548.28"/>
    <poly id="174517733#1" type="sport.tennis" color="79,230,125" fill="1" layer="-2.00" shape="1392.44,548.28 1383.53,527.09 1392.55,523.34 1401.47,544.53 1392.44,548.28"/>
    <poly id="174517734" type="leisure.pitch" color="207,245,201" fill="1" layer="-2.00" shape="1409.39,540.95 1400.55,519.76 1409.65,516.01 1418.48,537.20 1409.39,540.95"/>
    <poly id="174517734#1" type="sport.tennis" color="79,230,125" fill="1" layer="-2.00" shape="1409.39,540.95 1400.55,519.76 1409.65,516.01 1418.48,537.20 1409.39,540.95"/>
    <poly id="174517735" type="leisure.pitch" color="207,245,201" fill="1" layer="-2.00" shape="1489.29,501.60 1478.69,472.79 1494.80,466.93 1505.40,495.74 1489.29,501.60"/>
    <poly id="174517735#1" type="sport.basketball" color="79,230,125" fill="1" layer="-2.00" shape="1489.29,501.60 1478.69,472.79 1494.80,466.93 1505.40,495.74 1489.29,501.60"/>
    <poly id="174517736" type="leisure.pitch" color="207,245,201" fill="1" layer="-2.00" shape="1375.05,555.73 1366.35,534.35 1376.89,529.74 1385.56,550.96 1375.05,555.73"/>
    <poly id="174517736#1" type="sport.tennis" color="79,230,125" fill="1" layer="-2.00" shape="1375.05,555.73 1366.35,534.35 1376.89,529.74 1385.56,550.96 1375.05,555.73"/>
    <poly id="174517738" type="leisure.pitch" color="207,245,201" fill="1" layer="-2.00" shape="1456.82,513.36 1446.50,484.69 1462.98,478.83 1473.30,507.51 1456.82,513.36"/>
    <poly id="174517738#1" type="sport.basketball" color="79,230,125" fill="1" layer="-2.00" shape="1456.82,513.36 1446.50,484.69 1462.98,478.83 1473.30,507.51 1456.82,513.36"/>
    <poly id="185284100" type="amenity.college" color="237,199,199" fill="1" layer="-1.00" shape="2286.12,2702.19 2384.09,2685.72 2398.36,2814.04 2310.95,2829.17 2286.12,2702.19"/>
    <poly id="191206883" type="building.yes" color="255,230,230" fill="1" layer="-1.00" shape="2086.26,473.73 2085.83,446.07 2095.57,446.04 2095.99,473.00 2086.26,473.73"/>
    <poly id="205879099" type="landuse.reservoir" color="194,194,130" fill="1" layer="-3.00" shape="2596.42,960.37 2595.94,957.43 2598.90,955.09 2600.13,950.28 2607.15,948.40 2611.04,946.21 2612.90,941.87 2615.38,935.50 2624.27,934.39 2649.39,932.77 2660.15,932.58 2661.61,949.01 2661.49,962.50 2654.79,964.54 2641.06,965.82 2639.18,962.72 2636.83,959.01 2621.54,960.76 2606.09,960.34 2596.42,960.37"/>
    <poly id="205879101" type="leisure.garden" color="207,245,201" fill="1" layer="-2.00" shape="2590.66,964.27 2588.69,931.87 2623.47,929.28 2662.79,927.30 2664.98,929.46 2666.61,953.64 2665.71,964.97 2660.42,969.32 2640.92,970.93 2636.71,970.17 2634.98,965.06 2628.58,964.62 2611.26,965.60 2592.85,965.96 2590.66,964.27"/>
    <poly id="211900030" type="amenity.college" color="237,199,199" fill="1" layer="-1.00" shape="3166.65,2665.49 3167.28,2678.68 3183.26,3011.56 3040.01,3023.58 2925.97,3033.76 2873.58,3068.92 2876.40,3089.15 2894.85,3173.15 2428.92,3101.90 2426.55,2801.19 2425.21,2797.53 2423.00,2757.27 2408.25,2686.28 2410.21,2680.47 2431.36,2675.23 2481.66,2665.92 2511.03,2665.04 2580.29,2658.37 2654.13,2657.37 2724.69,2657.35 2811.16,2659.01 3166.65,2665.49"/>
    <poly id="214598756" type="landuse.residential" color="235,235,227" fill="1" layer="-3.00" shape="1111.60,2916.61 1091.57,2922.78 1022.48,2950.47 739.49,3085.42 720.96,3094.96 713.98,3098.55 673.43,3013.38 563.00,2897.30 503.85,2799.64 411.49,2647.12 332.00,2666.40 319.64,2639.64 285.86,2649.75 251.18,2495.21 336.70,2529.06 414.01,2570.71 453.34,2392.48 732.74,2462.92 709.03,2313.76 747.33,2225.71 1029.18,2205.08 1036.67,2369.46 1009.18,2669.44 1117.99,2892.44 1111.60,2916.61"/>
    <poly id="218164916" type="landuse.commercial" color="209,209,204" fill="1" layer="-3.00" shape="2882.77,2474.66 2832.27,2478.63 2839.03,2544.81 2781.60,2547.01 2786.81,2567.91 2793.00,2572.74 2752.57,2580.11 2755.14,2598.69 2756.09,2606.18 2763.07,2634.63 2907.61,2631.71 2882.77,2474.66"/>
    <poly id="220264886" type="landuse.recreation_ground" color="194,194,130" fill="1" layer="-3.00" shape="1525.30,485.74 1523.66,457.32 1569.58,454.88 1571.06,483.92 1525.30,485.74"/>
    <poly id="220264887" type="leisure.pitch" color="207,245,201" fill="1" layer="-2.00" shape="1540.30,477.44 1539.96,459.00 1529.45,459.19 1529.78,477.62 1540.30,477.44"/>
    <poly id="220264887#1" type="sport.volleyball" color="79,230,125" fill="1" layer="-2.00" shape="1540.30,477.44 1539.96,459.00 1529.45,459.19 1529.78,477.62 1540.30,477.44"/>
    <poly id="220264888" type="leisure.pitch" color="207,245,201" fill="1" layer="-2.00" shape="1558.35,475.89 1567.17,475.25 1565.82,457.05 1557.02,457.70 1558.35,475.89"/>
    <poly id="220264888#1" type="sport.volleyball" color="79,230,125" fill="1" layer="-2.00" shape="1558.35,475.89 1567.17,475.25 1565.82,457.05 1557.02,457.70 1558.35,475.89"/>
    <poly id="220320701" type="building.university" color="255,230,230" fill="1" layer="-1.00" shape="987.96,745.61 1003.13,758.28 1006.02,754.81 1018.25,757.66 1018.81,751.01 1035.69,752.11 1035.36,742.29 1041.19,742.56 1039.95,721.75 987.32,725.09 987.96,745.61"/>
    <poly id="24730814" type="amenity.university" color="237,199,199" fill="1" layer="-1.00" shape="2410.00,2647.79 2462.83,2633.53 2568.88,2627.09 2649.23,2628.76 2743.23,2634.53 2748.39,2630.96 2683.89,2391.25 2671.70,2317.12 2683.08,2268.70 2693.80,2143.41 2728.13,2043.99 2735.32,2015.30 2753.78,1925.56 2733.55,1782.43 2707.09,1657.85 2700.60,1625.42 2684.83,1561.70 2581.84,1556.56 2552.86,1523.06 2532.98,1442.24 2510.80,1371.95 2509.24,1350.54 2546.57,1135.13 2524.64,1063.95 2520.44,976.91 2535.64,832.22 2535.47,820.06 2532.19,788.28 2524.03,739.76 2510.09,691.55 2483.55,594.88 2478.80,522.50 2433.14,414.59 2417.98,326.96 2379.55,238.27 2285.69,178.89 2241.04,173.92 2085.80,136.45 2045.10,142.63 1971.64,181.21 1908.87,47.28 1886.55,55.68 1856.59,-4.35 1738.45,28.37 1655.45,33.08 1610.70,34.98 1557.60,46.21 1549.12,41.44 1453.88,81.41 1496.21,268.26 1516.32,454.53 1220.00,498.74 1013.76,495.83 803.44,516.81 533.36,539.93 536.69,579.65 537.04,582.47 547.76,716.64 566.76,742.30 599.40,762.55 706.51,783.49 761.57,814.37 793.47,877.28 828.12,879.80 838.60,1088.83 1174.95,1160.39 1376.73,1204.60 1581.10,1330.41 1682.43,1392.79 1714.30,1424.26 1761.82,1469.51 1929.81,1629.52 2108.66,1795.78 2231.96,2097.59 2284.81,2230.96 2332.90,2357.71 2374.07,2459.07 2410.00,2647.79"/>
    <poly id="25006292" type="natural.wood" color="140,196,107" fill="1" layer="-4.00" shape="2284.81,2230.96 2176.14,2239.55 2110.16,2323.80 1742.89,2370.08 1716.24,2401.50 1899.25,2602.29 1809.09,2623.57 1838.62,2764.43 1111.60,2916.61 1117.99,2892.44 1009.18,2669.44 1036.67,2369.46 1029.18,2205.08 747.33,2225.71 709.03,2313.76 732.74,2462.92 453.34,2392.48 414.01,2570.71 336.70,2529.06 251.18,2495.21 239.51,2441.33 302.82,2428.28 292.88,2352.60 242.74,2241.69 48.42,2014.76 -80.19,1823.09 -138.65,1719.35 -154.82,1605.63 -120.70,1500.08 -80.62,1393.83 227.21,959.46 368.23,1270.13 511.37,1200.32 471.45,1055.96 461.58,1050.63 534.20,754.42 566.76,742.30 599.40,762.55 706.51,783.49 709.40,785.11 761.57,814.37 793.47,877.28 828.12,879.80 838.60,1088.83 1174.95,1160.39 1376.73,1204.60 1581.10,1330.41 1682.43,1392.79 1714.30,1424.26 1761.82,1469.51 1929.81,1629.52 2108.66,1795.78 2284.81,2230.96"/>
    <poly id="27709602" type="landuse.recreation_ground" color="194,194,130" fill="1" layer="-3.00" shape="773.32,2391.52 1030.15,2368.55 1023.16,2212.26 754.21,2231.57 773.32,2391.52"/>
    <poly id="27768531" type="building.university" color="255,230,230" fill="1" layer="-1.00" shape="1493.43,998.78 1499.75,1004.55 1482.08,1024.72 1510.36,1050.48 1523.79,1035.15 1510.67,1023.21 1521.16,1011.24 1529.27,1018.64 1538.03,1008.64 1530.44,1001.72 1540.76,989.95 1518.98,970.12 1506.88,983.94 1499.87,977.56 1491.28,987.36 1498.03,993.53 1493.43,998.78"/>
    <poly id="27768533" type="leisure.track" color="207,245,201" fill="1" layer="-2.00" shape="2034.20,1095.02 2014.92,1099.15 1998.87,1096.98 1982.88,1083.12 1974.79,1065.26 1953.81,976.43 1957.80,958.17 1976.44,940.53 1997.26,935.95 2016.57,939.38 2024.53,943.86 2030.59,949.49 2034.86,962.61 2059.53,1056.94 2054.91,1071.23 2048.22,1085.78 2034.20,1095.02"/>
    <poly id="27768533#1" type="sport.running" color="79,230,125" fill="1" layer="-2.00" shape="2034.20,1095.02 2014.92,1099.15 1998.87,1096.98 1982.88,1083.12 1974.79,1065.26 1953.81,976.43 1957.80,958.17 1976.44,940.53 1997.26,935.95 2016.57,939.38 2024.53,943.86 2030.59,949.49 2034.86,962.61 2059.53,1056.94 2054.91,1071.23 2048.22,1085.78 2034.20,1095.02"/>
    <poly id="27768534" type="amenity.library" color="237,199,199" fill="1" layer="-1.00" shape="1702.10,950.27 1712.33,934.29 1699.80,926.13 1697.50,906.54 1704.17,895.59 1710.87,895.12 1723.41,905.10 1734.08,890.49 1719.30,877.32 1671.50,877.01 1680.60,931.20 1687.33,939.37 1702.10,950.27"/>
    <poly id="27768534#1" type="building.yes" color="255,230,230" fill="1" layer="-1.00" shape="1702.10,950.27 1712.33,934.29 1699.80,926.13 1697.50,906.54 1704.17,895.59 1710.87,895.12 1723.41,905.10 1734.08,890.49 1719.30,877.32 1671.50,877.01 1680.60,931.20 1687.33,939.37 1702.10,950.27"/>
    <poly id="27768546" type="building.school" color="255,230,230" fill="1" layer="-1.00" shape="1533.59,1178.80 1534.72,1169.55 1596.70,1175.15 1659.85,1180.74 1659.29,1189.99 1596.03,1183.80 1558.46,1181.08 1533.59,1178.80"/>
    <poly id="27768551" type="amenity.school" color="237,199,199" fill="1" layer="-1.00" shape="1472.27,1090.95 1500.26,1067.19 1565.60,1009.66 1660.52,1012.00 1675.38,1010.70 1688.12,1118.28 1693.58,1145.27 1715.54,1182.43 1546.80,1218.06 1527.91,1211.70 1472.27,1090.95"/>
    <poly id="27768553" type="building.university" color="255,230,230" fill="1" layer="-1.00" shape="1787.85,995.44 1803.19,974.90 1762.72,943.47 1747.38,964.02 1787.85,995.44"/>
    <poly id="27768757" type="building.university" color="255,230,230" fill="1" layer="-1.00" shape="1398.31,991.33 1398.46,976.33 1398.87,935.45 1380.67,935.25 1380.26,976.54 1365.22,976.34 1365.64,934.78 1349.44,934.61 1349.02,976.15 1335.16,975.96 1335.59,934.18 1317.73,933.99 1317.32,976.01 1303.92,975.33 1304.35,933.05 1295.57,932.96 1287.25,932.87 1286.83,975.15 1286.75,983.45 1286.68,990.14 1302.80,990.42 1302.37,1032.49 1316.46,1032.64 1316.88,990.62 1328.87,991.31 1328.45,1032.12 1344.19,1032.28 1344.61,991.01 1361.52,991.68 1361.11,1032.26 1379.89,1032.46 1380.30,991.38 1398.31,991.33"/>
    <poly id="28234120" type="amenity.college" color="237,199,199" fill="1" layer="-1.00" shape="2907.61,2631.71 2882.77,2474.66 2920.25,2473.97 2942.14,2037.22 2765.65,2027.84 2758.91,2012.70 2767.19,1928.99 2748.23,1783.89 2747.70,1779.85 2721.24,1656.78 2760.87,1658.36 2774.17,1539.87 2834.10,1535.84 2834.92,1250.18 2735.08,1247.57 2730.17,1144.97 2825.36,1125.11 2788.28,1054.72 2820.23,1019.91 3459.78,1009.89 3271.93,1776.12 3169.10,2256.52 3149.11,2398.11 3137.89,2506.03 3128.68,2558.31 3100.13,2603.47 3073.79,2621.00 3029.25,2638.05 2907.61,2631.71"/>
    <poly id="283551579" type="building.university" color="255,230,230" fill="1" layer="-1.00" shape="1196.48,1059.95 1211.46,1060.20 1211.64,1023.35 1219.06,1023.47 1219.46,1012.18 1191.83,1012.12 1191.31,1031.93 1197.42,1032.20 1196.48,1059.95"/>
    <poly id="283552007" type="building.university" color="255,230,230" fill="1" layer="-1.00" shape="1225.02,1023.01 1231.28,1022.84 1229.06,1059.71 1243.75,1060.67 1245.97,1022.94 1253.24,1023.36 1253.21,1011.94 1225.28,1012.02 1225.02,1023.01"/>
    <poly id="28404790" type="building.yes" color="255,230,230" fill="1" layer="-1.00" shape="1872.56,2692.72 1867.88,2668.03 1892.05,2663.27 1896.73,2687.95 1872.56,2692.72"/>
    <poly id="28404791" type="building.yes" color="255,230,230" fill="1" layer="-1.00" shape="1946.63,2666.45 1944.38,2645.41 1963.61,2643.27 1965.86,2664.30 1946.63,2666.45"/>
    <poly id="28404792" type="building.yes" color="255,230,230" fill="1" layer="-1.00" shape="1982.72,2647.62 1979.26,2616.64 1991.51,2615.21 1994.98,2646.20 1982.72,2647.62"/>
    <poly id="28404793" type="building.yes" color="255,230,230" fill="1" layer="-1.00" shape="2002.42,2645.75 1999.82,2620.38 2013.27,2618.96 2015.86,2644.32 2002.42,2645.75"/>
    <poly id="28404794" type="building.yes" color="255,230,230" fill="1" layer="-1.00" shape="2049.23,2643.97 2058.53,2647.51 2067.81,2648.95 2079.39,2649.04 2088.41,2647.66 2095.76,2644.93 2102.02,2641.11 2107.55,2636.05 2114.52,2628.91 2106.65,2617.62 2101.08,2610.75 2093.24,2605.98 2084.31,2604.53 2076.12,2604.30 2068.28,2606.55 2061.55,2610.01 2056.38,2614.69 2052.53,2620.49 2050.51,2628.97 2049.21,2636.84 2049.23,2643.97"/>
    <poly id="28404798" type="building.yes" color="255,230,230" fill="1" layer="-1.00" shape="2268.39,2638.46 2278.84,2636.59 2284.82,2627.04 2282.92,2617.45 2274.44,2611.77 2263.26,2613.65 2257.76,2622.27 2259.85,2632.40 2268.39,2638.46"/>
    <poly id="28404807" type="amenity.hospital" color="237,199,199" fill="1" layer="-1.00" shape="2332.90,2357.71 2260.43,2391.15 2278.27,2496.37 2332.78,2662.78 2410.00,2647.79 2374.07,2459.07 2332.90,2357.71"/>
    <poly id="28404811" type="tourism.zoo" color="207,245,201" fill="1" layer="-2.00" shape="1888.05,2562.94 1716.24,2401.50 1742.89,2370.08 2110.16,2323.80 2176.14,2239.55 2284.81,2230.96 2332.90,2357.71 2260.43,2391.15 2278.27,2496.37 2270.93,2536.21 2280.08,2560.25 2244.37,2527.44 2202.25,2523.71 2050.92,2549.47 1888.05,2562.94"/>
    <poly id="29502885" type="leisure.stadium" color="207,245,201" fill="1" layer="-2.00" shape="945.96,615.55 937.03,649.08 912.42,673.68 878.74,682.76 844.99,673.89 820.23,649.43 811.10,615.96 820.03,582.43 844.64,557.83 878.33,548.75 912.06,557.62 936.82,582.08 945.96,615.55"/>
    <poly id="29502885#1" type="sport.cricket" color="79,230,125" fill="1" layer="-2.00" shape="945.96,615.55 937.03,649.08 912.42,673.68 878.74,682.76 844.99,673.89 820.23,649.43 811.10,615.96 820.03,582.43 844.64,557.83 878.33,548.75 912.06,557.62 936.82,582.08 945.96,615.55"/>
    <poly id="30023943" type="amenity.parking" color="184,184,179" fill="1" layer="-1.00" shape="2559.86,2618.20 2554.70,2577.99 2569.80,2575.98 2574.96,2616.18 2559.86,2618.20"/>
    <poly id="30025552" type="natural.water" color="181,209,209" fill="1" layer="-4.00" shape="2477.28,1165.26 2495.91,1148.27 2493.79,1130.81 2471.47,1133.52 2444.52,1144.72 2415.98,1141.63 2388.97,1132.18 2350.04,1130.71 2281.07,1143.08 2218.86,1163.90 2172.23,1188.92 2131.25,1195.39 2097.02,1201.85 2064.30,1190.83 2060.10,1192.56 2051.34,1196.16 2060.74,1213.59 2083.60,1223.58 2124.05,1216.05 2187.88,1218.51 2248.67,1242.67 2293.87,1262.11 2339.70,1315.95 2438.15,1441.07 2475.69,1499.69 2496.05,1540.38 2551.54,1615.31 2583.74,1672.27 2602.99,1735.65 2637.11,1801.23 2669.32,1857.06 2683.43,1893.52 2690.96,1924.37 2704.13,1922.26 2718.02,1924.73 2728.59,1920.26 2711.53,1846.01 2712.16,1813.00 2707.66,1786.76 2694.29,1737.30 2680.08,1710.58 2668.61,1670.54 2659.66,1622.47 2658.44,1589.14 2635.73,1587.46 2627.59,1597.65 2636.89,1627.17 2652.07,1662.51 2699.08,1834.68 2679.41,1845.73 2587.09,1646.04 2586.95,1599.43 2565.15,1598.92 2540.11,1587.75 2505.90,1537.17 2501.15,1513.91 2487.55,1477.44 2454.19,1425.68 2410.93,1362.30 2343.73,1276.78 2342.12,1256.67 2353.97,1229.65 2380.36,1204.18 2435.30,1182.31 2477.28,1165.26"/>
    <poly id="30026135" type="amenity.school" color="237,199,199" fill="1" layer="-1.00" shape="2229.01,1799.86 2275.47,1777.55 2242.62,1694.88 2197.64,1644.81 2157.15,1619.65 2105.29,1652.01 2229.01,1799.86"/>
    <poly id="30026138" type="building.yes" color="255,230,230" fill="1" layer="-1.00" shape="2181.52,1735.92 2205.38,1762.14 2230.28,1795.26 2264.53,1779.32 2252.13,1738.52 2245.14,1741.60 2256.51,1777.31 2234.75,1787.59 2210.87,1754.47 2188.17,1731.04 2181.52,1735.92"/>
    <poly id="30026139" type="amenity.school" color="237,199,199" fill="1" layer="-1.00" shape="2192.31,1771.42 2146.04,1853.56 2169.16,1917.53 2232.15,1870.58 2248.37,1846.47 2192.31,1771.42"/>
    <poly id="30026140" type="building.yes" color="255,230,230" fill="1" layer="-1.00" shape="2180.03,1830.73 2193.24,1830.61 2206.37,1833.78 2207.56,1823.47 2193.78,1820.07 2180.92,1820.42 2180.03,1830.73"/>
    <poly id="30026987" type="building.yes" color="255,230,230" fill="1" layer="-1.00" shape="1412.34,1109.10 1392.05,1108.19 1392.19,1075.02 1413.64,1078.24 1412.34,1109.10"/>
    <poly id="30026990" type="building.hospital" color="255,230,230" fill="1" layer="-1.00" shape="1422.75,1160.89 1456.27,1160.65 1456.21,1150.32 1480.46,1150.16 1480.36,1135.44 1459.93,1135.59 1459.86,1125.51 1421.91,1125.76 1421.99,1138.79 1445.93,1138.63 1446.01,1150.74 1422.69,1150.90 1422.75,1160.89"/>
    <poly id="30029198" type="building.yes" color="255,230,230" fill="1" layer="-1.00" shape="1594.07,1329.58 1597.54,1290.68 1640.45,1293.28 1638.19,1332.48 1594.07,1329.58"/>
    <poly id="30029240" type="building.yes" color="255,230,230" fill="1" layer="-1.00" shape="900.53,2610.35 897.83,2584.50 893.14,2580.74 886.25,2580.93 884.90,2569.41 887.64,2569.09 885.88,2554.01 883.14,2554.33 881.22,2542.54 883.73,2538.93 892.71,2538.32 896.62,2542.99 896.67,2546.86 909.26,2546.37 909.52,2543.85 911.28,2543.40 910.82,2540.23 914.04,2535.90 923.32,2535.13 925.60,2538.33 925.72,2543.30 920.33,2546.85 920.83,2549.77 919.42,2551.33 915.90,2551.13 916.08,2560.16 927.23,2559.13 928.15,2566.72 918.29,2567.92 919.16,2575.43 922.33,2575.19 924.32,2576.86 924.25,2579.28 927.14,2578.92 929.46,2580.35 931.15,2581.70 931.44,2585.54 928.74,2589.59 920.80,2590.12 922.72,2608.88 900.53,2610.35"/>
    <poly id="30029289" type="building.yes" color="255,230,230" fill="1" layer="-1.00" shape="1613.64,903.88 1613.58,883.77 1557.09,883.94 1557.16,904.05 1613.64,903.88"/>
    <poly id="30036618" type="building.yes" color="255,230,230" fill="1" layer="-1.00" shape="1667.69,1207.63 1668.46,1217.80 1687.48,1216.32 1686.71,1206.15 1667.69,1207.63"/>
    <poly id="30036619" type="amenity.post_office" color="237,199,199" fill="1" layer="-1.00" shape="1697.80,1200.18 1698.20,1212.92 1712.82,1212.46 1712.42,1199.72 1697.80,1200.18"/>
    <poly id="30036619#1" type="building.yes" color="255,230,230" fill="1" layer="-1.00" shape="1697.80,1200.18 1698.20,1212.92 1712.82,1212.46 1712.42,1199.72 1697.80,1200.18"/>
    <poly id="30036620" type="amenity.bank" color="237,199,199" fill="1" layer="-1.00" shape="1742.02,1168.47 1729.34,1163.85 1739.84,1135.48 1752.51,1140.11 1742.02,1168.47"/>
    <poly id="30036620#1" type="building.yes" color="255,230,230" fill="1" layer="-1.00" shape="1742.02,1168.47 1729.34,1163.85 1739.84,1135.48 1752.51,1140.11 1742.02,1168.47"/>
    <poly id="30036622" type="building.yes" color="255,230,230" fill="1" layer="-1.00" shape="1734.42,1093.05 1750.40,1077.75 1764.88,1092.96 1754.21,1101.17 1758.52,1112.05 1748.91,1116.99 1739.22,1117.48 1728.29,1109.49 1734.42,1093.05"/>
    <poly id="30036622#1" type="tourism.guest_house" color="207,245,201" fill="1" layer="-2.00" shape="1734.42,1093.05 1750.40,1077.75 1764.88,1092.96 1754.21,1101.17 1758.52,1112.05 1748.91,1116.99 1739.22,1117.48 1728.29,1109.49 1734.42,1093.05"/>
    <poly id="30036682" type="building.yes" color="255,230,230" fill="1" layer="-1.00" shape="1806.87,876.49 1849.01,871.43 1845.12,837.84 1802.99,842.90 1806.87,876.49"/>
    <poly id="30037015" type="landuse.recreation_ground" color="194,194,130" fill="1" layer="-3.00" shape="1498.91,1095.92 1586.58,1113.28 1618.78,1098.31 1665.00,1155.97 1680.16,1149.21 1660.52,1012.00 1565.60,1009.66 1500.26,1067.19 1498.91,1095.92"/>
    <poly id="30037017" type="waterway.drain" color="181,209,209" fill="0" layer="-4.00" shape="1874.62,630.93 1887.03,769.83 1889.70,799.72 1904.11,937.59 1920.24,1069.52 1935.50,1106.34 1952.61,1119.41 1973.48,1135.35 2026.02,1157.78 2055.82,1183.26 2060.10,1192.56"/>
    <poly id="30037018" type="natural.water" color="181,209,209" fill="1" layer="-4.00" shape="2345.93,971.13 2330.10,847.32 2458.45,824.06 2477.38,947.07 2345.93,971.13"/>
    <poly id="30037019" type="natural.water" color="181,209,209" fill="1" layer="-4.00" shape="2330.61,762.90 2321.73,639.85 2436.98,629.25 2451.24,740.45 2330.61,762.90"/>
    <poly id="30037051" type="building.university" color="255,230,230" fill="1" layer="-1.00" shape="2098.60,767.18 2088.84,708.58 2153.86,706.99 2160.81,743.26 2098.60,767.18"/>
    <poly id="30037272" type="building.yes" color="255,230,230" fill="1" layer="-1.00" shape="2424.76,466.04 2424.57,415.54 2375.50,415.73 2375.47,409.96 2366.47,410.00 2366.50,415.77 2321.46,415.95 2321.48,424.64 2303.19,424.71 2303.32,458.17 2321.61,458.11 2321.65,466.45 2367.22,466.27 2367.25,472.19 2374.80,472.16 2374.77,466.24 2424.76,466.04"/>
    <poly id="30037272#1" type="tourism.hostel" color="207,245,201" fill="1" layer="-2.00" shape="2424.76,466.04 2424.57,415.54 2375.50,415.73 2375.47,409.96 2366.47,410.00 2366.50,415.77 2321.46,415.95 2321.48,424.64 2303.19,424.71 2303.32,458.17 2321.61,458.11 2321.65,466.45 2367.22,466.27 2367.25,472.19 2374.80,472.16 2374.77,466.24 2424.76,466.04"/>
    <poly id="30037273" type="leisure.garden" color="207,245,201" fill="1" layer="-2.00" shape="2169.61,515.56 2169.67,480.17 2259.26,480.33 2259.21,515.73 2169.61,515.56"/>
    <poly id="30037274" type="building.yes" color="255,230,230" fill="1" layer="-1.00" shape="2268.92,521.94 2268.72,471.45 2219.66,471.65 2219.63,465.86 2210.63,465.90 2210.66,471.68 2165.62,471.85 2165.65,480.55 2147.35,480.61 2147.48,514.09 2165.78,514.01 2165.81,522.35 2211.39,522.17 2211.42,528.10 2218.96,528.07 2218.94,522.15 2268.92,521.94"/>
    <poly id="30037274#1" type="tourism.hostel" color="207,245,201" fill="1" layer="-2.00" shape="2268.92,521.94 2268.72,471.45 2219.66,471.65 2219.63,465.86 2210.63,465.90 2210.66,471.68 2165.62,471.85 2165.65,480.55 2147.35,480.61 2147.48,514.09 2165.78,514.01 2165.81,522.35 2211.39,522.17 2211.42,528.10 2218.96,528.07 2218.94,522.15 2268.92,521.94"/>
    <poly id="30037405" type="leisure.pitch" color="207,245,201" fill="1" layer="-2.00" shape="1097.45,656.73 1095.02,557.26 1152.57,555.81 1155.00,655.29 1097.45,656.73"/>
    <poly id="30037405#1" type="sport.hockey" color="79,230,125" fill="1" layer="-2.00" shape="1097.45,656.73 1095.02,557.26 1152.57,555.81 1155.00,655.29 1097.45,656.73"/>
    <poly id="30037406" type="landuse.recreation_ground" color="194,194,130" fill="1" layer="-3.00" shape="1371.20,565.32 1357.03,529.80 1434.51,497.67 1448.68,533.18 1371.20,565.32"/>
    <poly id="30037407" type="landuse.recreation_ground" color="194,194,130" fill="1" layer="-3.00" shape="1452.32,525.52 1436.32,485.56 1498.21,462.24 1513.04,501.64 1452.32,525.52"/>
    <poly id="30037408" type="leisure.pitch" color="207,245,201" fill="1" layer="-2.00" shape="960.34,652.12 1026.06,649.56 1024.03,548.44 959.45,552.16 960.34,652.12"/>
    <poly id="30037408#1" type="sport.soccer" color="79,230,125" fill="1" layer="-2.00" shape="960.34,652.12 1026.06,649.56 1024.03,548.44 959.45,552.16 960.34,652.12"/>
    <poly id="30038501" type="building.yes" color="255,230,230" fill="1" layer="-1.00" shape="2087.28,520.23 2103.76,520.18 2103.64,481.71 2087.17,481.76 2087.28,520.23"/>
    <poly id="30038502" type="building.yes" color="255,230,230" fill="1" layer="-1.00" shape="1764.68,898.64 1774.93,906.63 1767.22,916.93 1790.22,934.86 1799.82,922.06 1845.01,957.30 1856.60,941.84 1841.35,929.94 1837.13,935.57 1811.52,915.60 1826.99,894.98 1789.40,865.67 1764.68,898.64"/>
    <poly id="30038502#1" type="tourism.hostel" color="207,245,201" fill="1" layer="-2.00" shape="1764.68,898.64 1774.93,906.63 1767.22,916.93 1790.22,934.86 1799.82,922.06 1845.01,957.30 1856.60,941.84 1841.35,929.94 1837.13,935.57 1811.52,915.60 1826.99,894.98 1789.40,865.67 1764.68,898.64"/>
    <poly id="30038504" type="building.university" color="255,230,230" fill="1" layer="-1.00" shape="1388.04,712.19 1349.29,711.15 1311.99,709.80 1312.41,695.63 1341.52,696.54 1342.21,673.71 1315.23,672.86 1315.67,658.53 1342.21,659.37 1342.88,637.00 1308.93,635.93 1306.71,709.45 1291.68,708.99 1294.18,625.75 1310.29,626.25 1310.52,618.37 1416.08,621.70 1415.58,638.50 1359.51,636.73 1358.81,659.99 1395.84,661.16 1395.42,675.03 1357.73,673.84 1357.02,697.41 1388.45,698.40 1388.04,712.19"/>
    <poly id="30038505" type="building.university" color="255,230,230" fill="1" layer="-1.00" shape="1146.28,797.38 1263.23,801.71 1263.74,787.41 1213.48,785.55 1214.63,753.16 1258.04,754.75 1258.52,741.17 1165.14,737.72 1165.30,724.00 1193.39,725.03 1194.71,687.76 1156.94,686.36 1155.60,724.15 1160.39,724.33 1160.35,737.54 1159.89,750.34 1164.69,750.51 1201.76,751.88 1200.55,786.12 1146.74,784.12 1146.28,797.38"/>
    <poly id="30038506" type="building.university" color="255,230,230" fill="1" layer="-1.00" shape="1216.59,727.19 1234.50,727.13 1234.12,709.87 1248.74,698.87 1227.50,673.37 1208.67,688.37 1207.73,701.65 1216.87,710.59 1216.59,727.19"/>
    <poly id="30038507" type="building.university" color="255,230,230" fill="1" layer="-1.00" shape="1076.55,823.03 1100.02,823.40 1100.98,759.97 1119.49,760.27 1120.37,745.77 1077.71,745.10 1076.55,823.03"/>
    <poly id="30038508" type="building.university" color="255,230,230" fill="1" layer="-1.00" shape="1306.68,877.51 1406.71,880.91 1407.12,868.42 1371.38,867.21 1372.17,842.78 1404.88,843.88 1405.29,831.00 1373.00,829.90 1373.81,805.01 1408.55,806.19 1408.98,792.74 1310.36,789.39 1308.53,845.62 1321.59,846.07 1322.95,804.34 1363.23,805.71 1362.47,829.11 1326.63,827.91 1326.21,840.65 1361.62,841.85 1360.80,866.70 1307.10,864.88 1306.68,877.51"/>
    <poly id="30038509" type="building.university" color="255,230,230" fill="1" layer="-1.00" shape="1262.63,927.07 1262.86,914.99 1021.82,909.92 1022.81,860.75 993.36,860.14 992.12,921.38 991.39,957.94 1042.51,959.01 1043.23,922.92 1059.13,923.23 1058.42,958.87 1075.66,959.22 1076.39,923.52 1086.86,923.15 1086.13,959.86 1104.07,960.23 1104.80,924.12 1120.01,923.39 1119.27,960.12 1135.50,960.47 1136.24,923.34 1153.50,924.32 1152.77,960.63 1171.08,961.01 1171.77,926.33 1188.68,925.94 1187.96,961.25 1202.16,961.55 1202.89,925.89 1220.13,925.84 1219.38,963.26 1235.97,963.60 1236.71,926.83 1248.21,927.82 1247.68,954.20 1262.07,954.51 1262.63,927.07"/>
    <poly id="30038510" type="building.university" color="255,230,230" fill="1" layer="-1.00" shape="1446.95,763.39 1459.70,763.37 1459.66,737.67 1446.92,737.68 1446.95,763.39"/>
    <poly id="30038512" type="building.university" color="255,230,230" fill="1" layer="-1.00" shape="1442.10,593.79 1442.44,575.80 1476.81,576.46 1476.99,566.62 1489.06,566.85 1488.92,574.63 1560.09,575.99 1558.97,637.78 1539.45,637.40 1540.33,590.03 1498.41,589.23 1498.31,594.87 1442.10,593.79"/>
    <poly id="30038514" type="building.university" color="255,230,230" fill="1" layer="-1.00" shape="993.62,1059.39 1009.92,1059.79 1010.63,1032.23 1034.30,1032.82 1033.59,1060.62 1072.87,1061.62 1073.05,1054.27 1123.81,1055.56 1123.60,1064.21 1133.69,1064.47 1135.20,1005.48 1125.31,1005.24 1125.48,999.15 1095.40,998.39 1094.99,1014.54 1126.05,1015.33 1125.30,1044.54 1073.19,1043.23 1073.71,1023.26 1004.49,1021.51 1004.01,1039.74 994.13,1039.49 993.62,1059.39"/>
    <poly id="30038515" type="building.university" color="255,230,230" fill="1" layer="-1.00" shape="890.41,857.79 889.68,916.83 923.88,917.27 923.32,963.91 954.01,964.30 955.31,858.64 890.41,857.79"/>
    <poly id="30038516" type="building.university" color="255,230,230" fill="1" layer="-1.00" shape="901.44,995.56 948.25,995.87 948.17,1008.43 947.90,1053.54 932.29,1053.44 932.58,1009.02 915.04,1008.68 914.69,1063.14 901.02,1063.06 901.37,1008.13 901.44,995.56"/>