<?xml version="1.0" encoding="UTF-8"?>
<!-- generated on 2018-10-15 11:34:29.780889 by $Id$ via randomTrips.py
  options: 
-->
<routes xmlns:xsi="http://www.w3.org/2001/XMLSchema-instance" xsi:noNamespaceSchemaLocation="http://sumo.dlr.de/xsd/routes_file.xsd">
    <vType id="bus" vClass="bus">
    </vType>
    <trip id="bus0" depart="0.00" departLane="best" from="24730644#21" to="-191207584#5" type="bus"/>
    <trip id="bus4" depart="32.37" departLane="best" from="-330222366#0" to="-191207584#9" type="bus"/>
    <trip id="bus5" depart="40.46" departLane="best" from="-102580576#4" to="-27768547#1" type="bus"/>
    <trip id="bus12" depart="97.11" departLane="best" from="-207145445" to="-24730642#10" type="bus"/>
    <trip id="bus23" depart="186.12" departLane="best" from="24730644#19" to="-321823978#11" type="bus"/>
    <trip id="bus27" depart="218.49" departLane="best" from="-24730642#10" to="-321823978#20" type="bus"/>
    <trip id="bus29" depart="234.68" departLane="best" from="218164911" to="24730644#21" type="bus"/>
    <trip id="bus30" depart="242.77" departLane="best" from="-30029227#2" to="-30029227#1" type="bus"/>
    <trip id="bus31" depart="250.86" departLane="best" from="-24730644#6" to="330222366#4" type="bus"/>
    <trip id="bus38" depart="307.51" departLane="best" from="35572872#1" to="206632633" type="bus"/>
    <trip id="bus43" depart="347.97" departLane="best" from="35572872#0" to="207145437" type="bus"/>
    <trip id="bus44" depart="356.06" departLane="best" from="-102580576#1" to="24730651#6" type="bus"/>
    <trip id="bus48" depart="388.43" departLane="best" from="30444184#0" to="-30029227#0" type="bus"/>
    <trip id="bus49" depart="396.53" departLane="best" from="191207584#0" to="-24730653#4" type="bus"/>
    <trip id="bus51" depart="412.71" departLane="best" from="24730642#6" to="-24730651#0" type="bus"/>
    <trip id="bus54" depart="436.99" departLane="best" from="-102580563" to="-30029312#11" type="bus"/>
    <trip id="bus55" depart="445.08" departLane="best" from="-102580576#4" to="321823978#6" type="bus"/>
    <trip id="bus59" depart="477.45" departLane="best" from="-207145441" to="191207584#0" type="bus"/>
    <trip id="bus62" depart="501.73" departLane="best" from="-35573057" to="207145445" type="bus"/>
    <trip id="bus67" depart="542.19" departLane="best" from="35572872#0" to="24730642#4" type="bus"/>
    <trip id="bus69" depart="558.37" departLane="best" from="-218164908#0" to="-28234119" type="bus"/>
    <trip id="bus72" depart="582.65" departLane="best" from="-24730651#4" to="321823978#12" type="bus"/>
    <trip id="bus74" depart="598.84" departLane="best" from="-24730644#8" to="-24730644#19" type="bus"/>
    <trip id="bus75" depart="606.93" departLane="best" from="321823978#9" to="211260242#1" type="bus"/>
    <trip id="bus76" depart="615.02" departLane="best" from="-35573057" to="28234118#2" type="bus"/>
    <trip id="bus78" depart="631.21" departLane="best" from="-207145445" to="-330222367#9" type="bus"/>
    <trip id="bus79" depart="639.30" departLane="best" from="27768549#1" to="24730644#14" type="bus"/>
    <trip id="bus81" depart="655.48" departLane="best" from="30029312#4" to="-30029209#1" type="bus"/>
    <trip id="bus84" depart="679.76" departLane="best" from="-25649885#2" to="321823978#3" type="bus"/>
    <trip id="bus85" depart="687.85" departLane="best" from="-330222367#2" to="30029312#6" type="bus"/>
    <trip id="bus88" depart="712.13" departLane="best" from="102580576#1" to="-28234118#0" type="bus"/>
    <trip id="bus93" depart="752.59" departLane="best" from="218164908#5" to="24730651#4" type="bus"/>
    <trip id="bus98" depart="793.05" departLane="best" from="-218164915" to="330222367#3" type="bus"/>
    <trip id="bus99" depart="801.15" departLane="best" from="-207145437" to="-25649885#3" type="bus"/>
    <trip id="bus100" depart="809.24" departLane="best" from="318477798#3" to="-30029209#0" type="bus"/>
    <trip id="bus103" depart="833.51" departLane="best" from="206632633" to="321823978#9" type="bus"/>
    <trip id="bus104" depart="841.61" departLane="best" from="-24730644#22" to="24730651#2" type="bus"/>
    <trip id="bus105" depart="849.70" departLane="best" from="-24730653#1" to="-330222366#0" type="bus"/>
    <trip id="bus113" depart="914.44" departLane="best" from="24730647#4" to="330222366#1" type="bus"/>
    <trip id="bus114" depart="922.53" departLane="best" from="-218164910" to="-24730644#1" type="bus"/>
    <trip id="bus116" depart="938.72" departLane="best" from="27369330#0" to="-27768549#1" type="bus"/>
    <trip id="bus118" depart="954.90" departLane="best" from="102580576#3" to="321823978#11" type="bus"/>
    <trip id="bus121" depart="979.18" departLane="best" from="-102580563" to="27768547#2" type="bus"/>
    <trip id="bus123" depart="995.36" departLane="best" from="-330222366#4" to="-191207584#1" type="bus"/>
    <trip id="bus124" depart="1003.45" departLane="best" from="-207145437" to="319828651#2" type="bus"/>
    <trip id="bus127" depart="1027.73" departLane="best" from="-30029209#4" to="321823978#0" type="bus"/>
    <trip id="bus129" depart="1043.92" departLane="best" from="-25649885#2" to="-24730642#4" type="bus"/>
    <trip id="bus130" depart="1052.01" departLane="best" from="30029209#0" to="319828651#2" type="bus"/>
    <trip id="bus132" depart="1068.19" departLane="best" from="-218164915" to="321823978#6" type="bus"/>
    <trip id="bus133" depart="1076.29" departLane="best" from="30029312#7" to="331649600" type="bus"/>
    <trip id="bus135" depart="1092.47" departLane="best" from="-102580576#4" to="24730725#2" type="bus"/>
    <trip id="bus138" depart="1116.75" departLane="best" from="30029209#3" to="-24730642#6" type="bus"/>
    <trip id="bus141" depart="1141.03" departLane="best" from="30029227#0" to="-28404800#0" type="bus"/>
    <trip id="bus145" depart="1173.39" departLane="best" from="330222366#1" to="-24730644#1" type="bus"/>
    <trip id="bus146" depart="1181.49" departLane="best" from="330222367#8" to="-24730653#4" type="bus"/>
    <trip id="bus148" depart="1197.67" departLane="best" from="24730642#5" to="206632640#0" type="bus"/>
    <trip id="bus149" depart="1205.76" departLane="best" from="-321823978#1" to="211260242#1" type="bus"/>
    <trip id="bus150" depart="1213.86" departLane="best" from="-25649885#5" to="24730651#0" type="bus"/>
    <trip id="bus151" depart="1221.95" departLane="best" from="-102580563" to="321823978#4" type="bus"/>
    <trip id="bus157" depart="1270.50" departLane="best" from="-30029209#4" to="-330222367#0" type="bus"/>
    <trip id="bus159" depart="1286.69" departLane="best" from="-218164908#3" to="-330222367#3" type="bus"/>
    <trip id="bus166" depart="1343.33" departLane="best" from="-35573057" to="321823978#1" type="bus"/>
    <trip id="bus168" depart="1359.52" departLane="best" from="-207145441" to="206633608#1" type="bus"/>
    <trip id="bus169" depart="1367.61" departLane="best" from="24730644#18" to="-30029312#9" type="bus"/>
    <trip id="bus174" depart="1408.07" departLane="best" from="-321823978#6" to="24730640#1" type="bus"/>
    <trip id="bus175" depart="1416.17" departLane="best" from="-24730644#17" to="24730644#6" type="bus"/>
    <trip id="bus178" depart="1440.44" departLane="best" from="28234118#0" to="27768547#1" type="bus"/>
    <trip id="bus179" depart="1448.54" departLane="best" from="-207147909" to="-330222367#6" type="bus"/>
    <trip id="bus182" depart="1472.81" departLane="best" from="-330222367#9" to="30029209#2" type="bus"/>
    <trip id="bus189" depart="1529.46" departLane="best" from="-25649885#1" to="24730640#1" type="bus"/>
    <trip id="bus194" depart="1569.92" departLane="best" from="-24730651#6" to="24730644#5" type="bus"/>
    <trip id="bus202" depart="1634.66" departLane="best" from="-321823978#9" to="25649885#3" type="bus"/>
    <trip id="bus204" depart="1650.85" departLane="best" from="-330222367#1" to="-191207584#9" type="bus"/>
    <trip id="bus206" depart="1667.03" departLane="best" from="24730644#11" to="-191207584#7" type="bus"/>
    <trip id="bus208" depart="1683.21" departLane="best" from="-191207584#0" to="24730642#1" type="bus"/>
    <trip id="bus209" depart="1691.31" departLane="best" from="-218164910" to="102580563" type="bus"/>
    <trip id="bus210" depart="1699.40" departLane="best" from="-206632633" to="-321823978#20" type="bus"/>
    <trip id="bus214" depart="1731.77" departLane="best" from="-102580576#4" to="207145441" type="bus"/>
    <trip id="bus218" depart="1764.14" departLane="best" from="330222367#0" to="-27768547#2" type="bus"/>
    <trip id="bus219" depart="1772.23" departLane="best" from="-102580576#4" to="-24730644#9" type="bus"/>
    <trip id="bus220" depart="1780.32" departLane="best" from="218164911" to="-28234118#0" type="bus"/>
    <trip id="bus223" depart="1804.60" departLane="best" from="28234118#0" to="-24730644#1" type="bus"/>
    <trip id="bus225" depart="1820.79" departLane="best" from="-207147909" to="-191207584#7" type="bus"/>
    <trip id="bus228" depart="1845.06" departLane="best" from="-207147909" to="27768549#0" type="bus"/>
    <trip id="bus232" depart="1877.43" departLane="best" from="-330222366#5" to="-321823978#15" type="bus"/>
    <trip id="bus233" depart="1885.52" departLane="best" from="191207584#11" to="-30036615" type="bus"/>
    <trip id="bus235" depart="1901.71" departLane="best" from="-207147909" to="330222367#3" type="bus"/>
    <trip id="bus237" depart="1917.89" departLane="best" from="25649885#0" to="-331649598#1" type="bus"/>
    <trip id="bus238" depart="1925.99" departLane="best" from="28233736#1" to="330222367#6" type="bus"/>
    <trip id="bus239" depart="1934.08" departLane="best" from="-27768547#0" to="30029209#5" type="bus"/>
    <trip id="bus243" depart="1966.45" departLane="best" from="30444184#0" to="-28404800#5" type="bus"/>
    <trip id="bus245" depart="1982.63" departLane="best" from="-318477795" to="-191207584#8" type="bus"/>
    <trip id="bus246" depart="1990.73" departLane="best" from="-24730644#6" to="30029209#0" type="bus"/>
    <trip id="bus249" depart="2015.00" departLane="best" from="-102580576#0" to="330222367#0" type="bus"/>
    <trip id="bus250" depart="2023.09" departLane="best" from="-207145441" to="24730651#4" type="bus"/>
    <trip id="bus255" depart="2063.56" departLane="best" from="206633608#1" to="-330222367#6" type="bus"/>
    <trip id="bus256" depart="2071.65" departLane="best" from="28234118#0" to="-30029312#7" type="bus"/>
    <trip id="bus258" depart="2087.83" departLane="best" from="-25649885#3" to="-24730644#12" type="bus"/>
    <trip id="bus259" depart="2095.93" departLane="best" from="214599085#0" to="27430119#1" type="bus"/>
    <trip id="bus261" depart="2112.11" departLane="best" from="102580576#1" to="24730651#8" type="bus"/>
    <trip id="bus264" depart="2136.39" departLane="best" from="-24730644#0" to="-191207584#11" type="bus"/>
    <trip id="bus265" depart="2144.48" departLane="best" from="214599085#0" to="-30029232#0" type="bus"/>
    <trip id="bus267" depart="2160.66" departLane="best" from="30029312#9" to="191207584#11" type="bus"/>
    <trip id="bus268" depart="2168.76" departLane="best" from="30036615" to="211260242#1" type="bus"/>
    <trip id="bus273" depart="2209.22" departLane="best" from="-206632640#1" to="-24730644#8" type="bus"/>
    <trip id="bus279" depart="2257.77" departLane="best" from="-330222367#2" to="30029312#4" type="bus"/>
    <trip id="bus287" depart="2322.51" departLane="best" from="24730647#2" to="321823978#8" type="bus"/>
    <trip id="bus290" depart="2346.79" departLane="best" from="28234118#0" to="211260242#1" type="bus"/>
    <trip id="bus291" depart="2354.88" departLane="best" from="-28234118#2" to="-24730644#14" type="bus"/>
    <trip id="bus292" depart="2362.97" departLane="best" from="330222366#4" to="191207584#5" type="bus"/>
    <trip id="bus293" depart="2371.07" departLane="best" from="131945992" to="-218164913#0" type="bus"/>
    <trip id="bus295" depart="2387.25" departLane="best" from="-207145445" to="330222367#4" type="bus"/>
    <trip id="bus300" depart="2427.71" departLane="best" from="-35572874" to="24730642#5" type="bus"/>
    <trip id="bus301" depart="2435.81" departLane="best" from="321823978#18" to="-25649885#1" type="bus"/>
    <trip id="bus302" depart="2443.90" departLane="best" from="22922908#0" to="24730640#1" type="bus"/>
    <trip id="bus303" depart="2451.99" departLane="best" from="131945992" to="-218164914#1" type="bus"/>
    <trip id="bus309" depart="2500.54" departLane="best" from="-321823978#20" to="206633608#0" type="bus"/>
    <trip id="bus312" depart="2524.82" departLane="best" from="28234118#1" to="218164915" type="bus"/>
    <trip id="bus313" depart="2532.91" departLane="best" from="28234118#3" to="-27768549#1" type="bus"/>
    <trip id="bus314" depart="2541.01" departLane="best" from="218164908#2" to="321823978#5" type="bus"/>
    <trip id="bus315" depart="2549.10" departLane="best" from="-218164908#0" to="331649598#1" type="bus"/>
    <trip id="bus317" depart="2565.28" departLane="best" from="-218164915" to="207145445" type="bus"/>
    <trip id="bus318" depart="2573.38" departLane="best" from="218164908#3" to="-24730642#0" type="bus"/>
    <trip id="bus320" depart="2589.56" departLane="best" from="-333396429" to="-24730644#10" type="bus"/>
    <trip id="bus324" depart="2621.93" departLane="best" from="218164908#3" to="-321823978#3" type="bus"/>
    <trip id="bus330" depart="2670.48" departLane="best" from="131945992" to="-24730644#7" type="bus"/>
    <trip id="bus331" depart="2678.58" departLane="best" from="218164908#3" to="207145441" type="bus"/>
    <trip id="bus332" depart="2686.67" departLane="best" from="-330222367#9" to="-30029312#10" type="bus"/>
    <trip id="bus334" depart="2702.85" departLane="best" from="28404800#3" to="-214599085#0" type="bus"/>
    <trip id="bus338" depart="2735.22" departLane="best" from="333396429" to="191207584#13" type="bus"/>
    <trip id="bus339" depart="2743.32" departLane="best" from="-191207584#13" to="191207584#7" type="bus"/>
    <trip id="bus343" depart="2775.69" departLane="best" from="27768547#0" to="-330222367#1" type="bus"/>
    <trip id="bus344" depart="2783.78" departLane="best" from="-35572872#1" to="330222367#8" type="bus"/>
    <trip id="bus346" depart="2799.96" departLane="best" from="-318477795" to="-30029312#0" type="bus"/>
    <trip id="bus350" depart="2832.33" departLane="best" from="28234118#0" to="-331649598#0" type="bus"/>
    <trip id="bus355" depart="2872.79" departLane="best" from="-218164914#0" to="207145437" type="bus"/>
    <trip id="bus359" depart="2905.16" departLane="best" from="-24730653#2" to="321823978#16" type="bus"/>
    <trip id="bus360" depart="2913.26" departLane="best" from="-218164912" to="102580563" type="bus"/>
    <trip id="bus361" depart="2921.35" departLane="best" from="-25649885#4" to="-30029209#5" type="bus"/>
    <trip id="bus362" depart="2929.44" departLane="best" from="-102580563" to="30029209#3" type="bus"/>
    <trip id="bus366" depart="2961.81" departLane="best" from="-24730644#2" to="-321823978#4" type="bus"/>
    <trip id="bus368" depart="2978.00" departLane="best" from="218164913#0" to="211260242#1" type="bus"/>
    <trip id="bus372" depart="3010.36" departLane="best" from="24730653#2" to="25649885#1" type="bus"/>
    <trip id="bus374" depart="3026.55" departLane="best" from="131945992" to="321823978#11" type="bus"/>
    <trip id="bus375" depart="3034.64" departLane="best" from="-28234118#1" to="30029209#0" type="bus"/>
    <trip id="bus381" depart="3083.20" departLane="best" from="28233736#1" to="-218164914#0" type="bus"/>
    <trip id="bus384" depart="3107.47" departLane="best" from="206633608#1" to="321823978#17" type="bus"/>
    <trip id="bus385" depart="3115.57" departLane="best" from="30029237#2" to="-30029227#0" type="bus"/>
    <trip id="bus389" depart="3147.94" departLane="best" from="330222367#6" to="30029312#4" type="bus"/>
    <trip id="bus390" depart="3156.03" departLane="best" from="330222367#6" to="30029209#3" type="bus"/>
    <trip id="bus392" depart="3172.21" departLane="best" from="-102580576#2" to="207145437" type="bus"/>
    <trip id="bus393" depart="3180.30" departLane="best" from="-330222367#8" to="24730644#14" type="bus"/>
    <trip id="bus397" depart="3212.67" departLane="best" from="-102580576#4" to="319828651#3" type="bus"/>
    <trip id="bus398" depart="3220.77" departLane="best" from="218164911" to="321823978#18" type="bus"/>
    <trip id="bus401" depart="3245.04" departLane="best" from="-30029209#1" to="-330222367#0" type="bus"/>
    <trip id="bus402" depart="3253.14" departLane="best" from="-218164910" to="330222366#6" type="bus"/>
    <trip id="bus403" depart="3261.23" departLane="best" from="-30029209#2" to="191207584#12" type="bus"/>
    <trip id="bus404" depart="3269.32" departLane="best" from="-207145445" to="319828651#4" type="bus"/>
    <trip id="bus406" depart="3285.51" departLane="best" from="102580576#3" to="-330222367#0" type="bus"/>
    <trip id="bus407" depart="3293.60" departLane="best" from="330222367#1" to="-206632633" type="bus"/>
    <trip id="bus409" depart="3309.78" departLane="best" from="330222367#1" to="30029312#11" type="bus"/>
    <trip id="bus411" depart="3325.97" departLane="best" from="-30029312#11" to="-330222366#1" type="bus"/>
    <trip id="bus413" depart="3342.15" departLane="best" from="24730647#4" to="24730642#1" type="bus"/>
    <trip id="bus414" depart="3350.24" departLane="best" from="24730642#1" to="-191207584#4" type="bus"/>
    <trip id="bus416" depart="3366.43" departLane="best" from="-218164908#2" to="207147909" type="bus"/>
    <trip id="bus419" depart="3390.71" departLane="best" from="-218164914#1" to="321823978#1" type="bus"/>
    <trip id="bus420" depart="3398.80" departLane="best" from="-102580563" to="30029312#3" type="bus"/>
    <trip id="bus421" depart="3406.89" departLane="best" from="-218164913#1" to="-24730644#18" type="bus"/>
    <trip id="bus422" depart="3414.98" departLane="best" from="-25649885#3" to="-24730653#2" type="bus"/>
    <trip id="bus424" depart="3431.17" departLane="best" from="-24730653#1" to="-30029312#11" type="bus"/>
    <trip id="bus431" depart="3487.82" departLane="best" from="30029209#1" to="30029312#9" type="bus"/>
    <trip id="bus434" depart="3512.09" departLane="best" from="-35573057" to="-330222366#4" type="bus"/>
    <trip id="bus435" depart="3520.18" departLane="best" from="24730653#2" to="191207584#10" type="bus"/>
    <trip id="bus437" depart="3536.37" departLane="best" from="-207145441" to="218164910" type="bus"/>
    <trip id="bus446" depart="3609.20" departLane="best" from="-321823978#7" to="-24730642#1" type="bus"/>
    <trip id="bus447" depart="3617.29" departLane="best" from="-330222366#4" to="24730644#10" type="bus"/>
    <trip id="bus448" depart="3625.39" departLane="best" from="-30036609" to="-24730651#0" type="bus"/>
    <trip id="bus454" depart="3673.94" departLane="best" from="-30029312#0" to="24730644#10" type="bus"/>
    <trip id="bus455" depart="3682.03" departLane="best" from="28234118#0" to="30029312#9" type="bus"/>
    <trip id="bus457" depart="3698.22" departLane="best" from="218164913#1" to="-28234118#0" type="bus"/>
    <trip id="bus461" depart="3730.59" departLane="best" from="218164913#0" to="30029209#5" type="bus"/>
    <trip id="bus464" depart="3754.86" departLane="best" from="24730644#23" to="-191207584#7" type="bus"/>
    <trip id="bus470" depart="3803.42" departLane="best" from="24730644#18" to="-191207584#9" type="bus"/>
    <trip id="bus471" depart="3811.51" departLane="best" from="-321823978#9" to="-30036615" type="bus"/>
    <trip id="bus476" depart="3851.97" departLane="best" from="28234118#0" to="-24730644#0" type="bus"/>
    <trip id="bus481" depart="3892.43" departLane="best" from="-24730644#6" to="-24730644#22" type="bus"/>
    <trip id="bus482" depart="3900.53" departLane="best" from="-102580563" to="25649885#2" type="bus"/>
    <trip id="bus483" depart="3908.62" departLane="best" from="-24730642#8" to="-321823978#20" type="bus"/>
    <trip id="bus485" depart="3924.80" departLane="best" from="-207145437" to="30029312#6" type="bus"/>
    <trip id="bus486" depart="3932.90" departLane="best" from="321823978#20" to="30029312#6" type="bus"/>
    <trip id="bus487" depart="3940.99" departLane="best" from="218164913#0" to="211260242#1" type="bus"/>
    <trip id="bus488" depart="3949.08" departLane="best" from="25649885#2" to="-330222367#2" type="bus"/>
    <trip id="bus497" depart="4021.91" departLane="best" from="-24730642#3" to="206632640#0" type="bus"/>
    <trip id="bus501" depart="4054.28" departLane="best" from="30029232#0" to="-28404800#1" type="bus"/>
    <trip id="bus502" depart="4062.37" departLane="best" from="-218164914#0" to="-27768547#1" type="bus"/>
    <trip id="bus506" depart="4094.74" departLane="best" from="218164911" to="24730640#1" type="bus"/>
    <trip id="bus507" depart="4102.84" departLane="best" from="24730644#12" to="30029312#7" type="bus"/>
    <trip id="bus510" depart="4127.11" departLane="best" from="-206633608#0" to="191207584#9" type="bus"/>
    <trip id="bus513" depart="4151.39" departLane="best" from="-207145437" to="30029312#7" type="bus"/>
    <trip id="bus520" depart="4208.04" departLane="best" from="-218164915" to="-218164908#4" type="bus"/>
    <trip id="bus522" depart="4224.22" departLane="best" from="191207584#10" to="-24730653#1" type="bus"/>
    <trip id="bus523" depart="4232.31" departLane="best" from="-25649885#1" to="-333396429" type="bus"/>
    <trip id="bus525" depart="4248.50" departLane="best" from="-24730642#0" to="-321823978#17" type="bus"/>
    <trip id="bus527" depart="4264.68" departLane="best" from="30029209#4" to="24730642#3" type="bus"/>
    <trip id="bus530" depart="4288.96" departLane="best" from="27768547#1" to="24730642#9" type="bus"/>
    <trip id="bus539" depart="4361.79" departLane="best" from="24730644#24" to="-330222367#5" type="bus"/>
    <trip id="bus540" depart="4369.88" departLane="best" from="-30029312#5" to="-321823978#10" type="bus"/>
    <trip id="bus542" depart="4386.07" departLane="best" from="330222366#6" to="191207584#0" type="bus"/>
    <trip id="bus543" depart="4394.16" departLane="best" from="-24730651#3" to="-24730644#22" type="bus"/>
    <trip id="bus545" depart="4410.35" departLane="best" from="-207147909" to="27768547#2" type="bus"/>
    <trip id="bus552" depart="4466.99" departLane="best" from="-330222367#10" to="-330222367#1" type="bus"/>
    <trip id="bus563" depart="4556.01" departLane="best" from="-25649885#2" to="24730642#1" type="bus"/>
    <trip id="bus567" depart="4588.38" departLane="best" from="28404800#0" to="-30029232#0" type="bus"/>
    <trip id="bus568" depart="4596.47" departLane="best" from="-330222367#10" to="330222366#6" type="bus"/>
    <trip id="bus574" depart="4645.03" departLane="best" from="-218164910" to="24730647#2" type="bus"/>
    <trip id="bus576" depart="4661.21" departLane="best" from="-207145437" to="-30029209#5" type="bus"/>
    <trip id="bus581" depart="4701.67" departLane="best" from="-24730653#3" to="-24730644#5" type="bus"/>
    <trip id="bus583" depart="4717.86" departLane="best" from="-24730653#2" to="-330222367#12" type="bus"/>
    <trip id="bus589" depart="4766.41" departLane="best" from="-25649885#4" to="-191207584#12" type="bus"/>
    <trip id="bus592" depart="4790.69" departLane="best" from="-30029237#2" to="-214599085#0" type="bus"/>
    <trip id="bus597" depart="4831.15" departLane="best" from="-191207584#4" to="321823978#8" type="bus"/>
    <trip id="bus600" depart="4855.43" departLane="best" from="28234118#0" to="-25649885#5" type="bus"/>
    <trip id="bus602" depart="4871.61" departLane="best" from="-218164908#2" to="-321823978#14" type="bus"/>
    <trip id="bus603" depart="4879.70" departLane="best" from="318477798#3" to="25649885#1" type="bus"/>
    <trip id="bus605" depart="4895.89" departLane="best" from="331649598#1" to="191207584#2" type="bus"/>
    <trip id="bus606" depart="4903.98" departLane="best" from="131945992" to="321823978#3" type="bus"/>
    <trip id="bus609" depart="4928.26" departLane="best" from="218164908#0" to="-30029312#10" type="bus"/>
    <trip id="bus610" depart="4936.35" departLane="best" from="-207145437" to="24730644#0" type="bus"/>
    <trip id="bus615" depart="4976.81" departLane="best" from="333396429" to="330222367#0" type="bus"/>
    <trip id="bus616" depart="4984.91" departLane="best" from="-30029312#6" to="30029209#1" type="bus"/>
    <trip id="bus617" depart="4993.00" departLane="best" from="30029209#0" to="-206632640#1" type="bus"/>
    <trip id="bus619" depart="5009.18" departLane="best" from="-30029312#7" to="-321823978#3" type="bus"/>
    <trip id="bus620" depart="5017.27" departLane="best" from="24730651#8" to="330222367#0" type="bus"/>
    <trip id="bus622" depart="5033.46" departLane="best" from="218164913#0" to="207145437" type="bus"/>
    <trip id="bus623" depart="5041.55" departLane="best" from="-321823978#17" to="24730642#4" type="bus"/>
    <trip id="bus624" depart="5049.64" departLane="best" from="28233736#2" to="191207584#4" type="bus"/>
    <trip id="bus626" depart="5065.83" departLane="best" from="-27430119#1" to="-30029227#0" type="bus"/>
    <trip id="bus627" depart="5073.92" departLane="best" from="-28234118#1" to="321823978#18" type="bus"/>
    <trip id="bus628" depart="5082.01" departLane="best" from="131945992" to="-24730644#13" type="bus"/>
    <trip id="bus631" depart="5106.29" departLane="best" from="-207145441" to="24730644#2" type="bus"/>
    <trip id="bus634" depart="5130.57" departLane="best" from="321823978#4" to="24730640#1" type="bus"/>
    <trip id="bus636" depart="5146.75" departLane="best" from="-218164908#0" to="-27768549#0" type="bus"/>
    <trip id="bus638" depart="5162.94" departLane="best" from="-102580576#4" to="207145445" type="bus"/>
    <trip id="bus640" depart="5179.12" departLane="best" from="95641233" to="24730651#4" type="bus"/>
    <trip id="bus642" depart="5195.31" departLane="best" from="330222367#9" to="24730642#1" type="bus"/>
    <trip id="bus643" depart="5203.40" departLane="best" from="-330222367#6" to="24730644#19" type="bus"/>
    <trip id="bus645" depart="5219.58" departLane="best" from="30029209#0" to="24730642#0" type="bus"/>
    <trip id="bus646" depart="5227.68" departLane="best" from="-330222367#0" to="321823978#15" type="bus"/>
    <trip id="bus647" depart="5235.77" departLane="best" from="-206632640#1" to="-24730644#14" type="bus"/>
    <trip id="bus648" depart="5243.86" departLane="best" from="-218164915" to="-24730651#6" type="bus"/>
    <trip id="bus652" depart="5276.23" departLane="best" from="-25649885#3" to="24730640#1" type="bus"/>
    <trip id="bus654" depart="5292.42" departLane="best" from="330222366#3" to="-24730651#0" type="bus"/>
    <trip id="bus658" depart="5324.78" departLane="best" from="24730644#22" to="211260242#1" type="bus"/>
    <trip id="bus659" depart="5332.88" departLane="best" from="-321823978#7" to="24730640#1" type="bus"/>
    <trip id="bus660" depart="5340.97" departLane="best" from="131945992" to="218164915" type="bus"/>
    <trip id="bus661" depart="5349.06" departLane="best" from="-28234119" to="330222367#12" type="bus"/>
    <trip id="bus662" depart="5357.15" departLane="best" from="102580576#0" to="30029209#3" type="bus"/>
    <trip id="bus664" depart="5373.34" departLane="best" from="-207145437" to="-218164908#3" type="bus"/>
    <trip id="bus668" depart="5405.71" departLane="best" from="28233736#1" to="30029312#4" type="bus"/>
    <trip id="bus675" depart="5462.36" departLane="best" from="-24730642#0" to="-30029312#5" type="bus"/>
    <trip id="bus678" depart="5486.63" departLane="best" from="330222366#5" to="191207584#8" type="bus"/>
    <trip id="bus681" depart="5510.91" departLane="best" from="131945992" to="319828651#2" type="bus"/>
    <trip id="bus683" depart="5527.09" departLane="best" from="-330222366#6" to="319828651#2" type="bus"/>
    <trip id="bus685" depart="5543.28" departLane="best" from="-30029312#7" to="-330222366#3" type="bus"/>
    <trip id="bus688" depart="5567.56" departLane="best" from="-28233736#0" to="35573057" type="bus"/>
    <trip id="bus689" depart="5575.65" departLane="best" from="24730651#8" to="-24730644#11" type="bus"/>
    <trip id="bus690" depart="5583.74" departLane="best" from="331649598#1" to="-321823978#9" type="bus"/>
    <trip id="bus694" depart="5616.11" departLane="best" from="-218164910" to="-30029312#8" type="bus"/>
    <trip id="bus695" depart="5624.20" departLane="best" from="24730642#5" to="206633608#1" type="bus"/>
    <trip id="bus700" depart="5664.66" departLane="best" from="-28404800#5" to="30029232#1" type="bus"/>
    <trip id="bus701" depart="5672.76" departLane="best" from="-30029312#8" to="24730644#15" type="bus"/>
    <trip id="bus704" depart="5697.03" departLane="best" from="24730653#3" to="-191207584#7" type="bus"/>
    <trip id="bus705" depart="5705.13" departLane="best" from="-35573057" to="330222367#6" type="bus"/>
    <trip id="bus707" depart="5721.31" departLane="best" from="218164913#1" to="24730651#6" type="bus"/>
    <trip id="bus711" depart="5753.68" departLane="best" from="24730653#0" to="-206632633" type="bus"/>
    <trip id="bus713" depart="5769.87" departLane="best" from="-218164915" to="24730644#24" type="bus"/>
    <trip id="bus714" depart="5777.96" departLane="best" from="-321823978#4" to="27768549#1" type="bus"/>
    <trip id="bus716" depart="5794.14" departLane="best" from="28233736#2" to="-218164908#4" type="bus"/>
    <trip id="bus717" depart="5802.24" departLane="best" from="-218164910" to="-28233736#1" type="bus"/>
    <trip id="bus719" depart="5818.42" departLane="best" from="-24730642#6" to="321823978#16" type="bus"/>
    <trip id="bus722" depart="5842.70" departLane="best" from="24730644#23" to="24730644#5" type="bus"/>