<?xml version="1.0" encoding="UTF-8"?>

<!-- generated on Mon 15 Oct 2018 15:32:54 IST by Netedit Version 0.32.0
<?xml version="1.0" encoding="UTF-8"?>

<configuration xmlns:xsi="http://www.w3.org/2001/XMLSchema-instance" xsi:noNamespaceSchemaLocation="http://sumo.dlr.de/xsd/netconvertConfiguration.xsd">

    <input>
        <sumo-net-file value="/home/ajay/Downloads/sumo-0.32.0/tools/2018-10-15-11-34-24/osm.net.xml"/>
    </input>

    <output>
        <output-file value="/home/ajay/Downloads/sumo-0.32.0/tools/2018-10-15-11-34-24/osm.net.xml"/>
        <output.street-names value="true"/>
    </output>

    <processing>
        <no-internal-links value="false"/>
        <no-turnarounds value="true"/>
        <offset.disable-normalization value="true"/>
        <lefthand value="false"/>
        <junctions.corner-detail value="5"/>
        <rectangular-lane-cut value="false"/>
        <walkingareas value="true"/>
    </processing>

</configuration>
-->

<net version="0.27" junctionCornerDetail="5" walkingareas="true" xmlns:xsi="http://www.w3.org/2001/XMLSchema-instance" xsi:noNamespaceSchemaLocation="http://sumo.dlr.de/xsd/net_file.xsd">

    <location netOffset="-415219.12,-1435347.52" convBoundary="0.00,0.00,3472.72,4730.94" origBoundary="80.218226,12.982706,80.250254,13.025503" projParameter="+proj=utm +zone=44 +ellps=WGS84 +datum=WGS84 +units=m +no_defs"/>

    <type id="cycleway.lane" allow="bicycle" bikeLaneWidth="1.00"/>
    <type id="cycleway.opposite_lane" allow="bicycle" bikeLaneWidth="1.00"/>
    <type id="cycleway.opposite_track" allow="bicycle" bikeLaneWidth="1.50"/>
    <type id="cycleway.track" allow="bicycle" bikeLaneWidth="1.50"/>
    <type id="highway.bridleway" priority="1" numLanes="1" speed="2.78" allow="pedestrian" oneway="1" width="2.00"/>
    <type id="highway.bus_guideway" priority="1" numLanes="1" speed="8.33" allow="bus" oneway="1"/>
    <type id="highway.cycleway" priority="1" numLanes="1" speed="5.56" allow="bicycle" oneway="0" width="1.00"/>
    <type id="highway.footway" priority="1" numLanes="1" speed="2.78" allow="pedestrian" oneway="1" width="2.00"/>
    <type id="highway.ford" priority="1" numLanes="1" speed="2.78" allow="army" oneway="0"/>
    <type id="highway.living_street" priority="3" numLanes="1" speed="2.78" disallow="tram rail_urban rail rail_electric ship" oneway="0"/>
    <type id="highway.motorway" priority="13" numLanes="2" speed="27.78" allow="private emergency authority army vip passenger hov taxi bus coach delivery truck trailer motorcycle evehicle custom1 custom2" oneway="1"/>
    <type id="highway.motorway_link" priority="12" numLanes="1" speed="16.67" allow="private emergency authority army vip passenger hov taxi bus coach delivery truck trailer motorcycle evehicle custom1 custom2" oneway="1"/>
    <type id="highway.path" priority="1" numLanes="1" speed="2.78" allow="bicycle pedestrian" oneway="1" width="2.00"/>
    <type id="highway.pedestrian" priority="1" numLanes="1" speed="2.78" allow="pedestrian" oneway="1" width="2.00"/>
    <type id="highway.primary" priority="9" numLanes="2" speed="13.89" disallow="tram rail_urban rail rail_electric pedestrian ship" oneway="0" sidewalkWidth="3.00"/>
    <type id="highway.primary_link" priority="8" numLanes="1" speed="13.89" disallow="tram rail_urban rail rail_electric pedestrian ship" oneway="0" sidewalkWidth="3.00"/>
    <type id="highway.raceway" priority="14" numLanes="2" speed="83.33" allow="vip" oneway="0"/>
    <type id="highway.residential" priority="4" numLanes="1" speed="13.89" disallow="tram rail_urban rail rail_electric pedestrian ship" oneway="0" sidewalkWidth="2.00"/>
    <type id="highway.secondary" priority="7" numLanes="2" speed="13.89" disallow="tram rail_urban rail rail_electric pedestrian ship" oneway="0" sidewalkWidth="3.00"/>
    <type id="highway.secondary_link" priority="6" numLanes="1" speed="13.89" disallow="tram rail_urban rail rail_electric pedestrian ship" oneway="0" sidewalkWidth="3.00"/>
    <type id="highway.service" priority="2" numLanes="1" speed="5.56" allow="delivery bicycle pedestrian" oneway="0"/>
    <type id="highway.services" priority="1" numLanes="1" speed="8.33" disallow="tram rail_urban rail rail_electric ship" oneway="0"/>
    <type id="highway.stairs" priority="1" numLanes="1" speed="1.39" allow="pedestrian" oneway="1" width="2.00"/>
    <type id="highway.step" priority="1" numLanes="1" speed="1.39" allow="pedestrian" oneway="1" width="2.00"/>
    <type id="highway.steps" priority="1" numLanes="1" speed="1.39" allow="pedestrian" oneway="1" width="2.00"/>
    <type id="highway.tertiary" priority="6" numLanes="1" speed="13.89" disallow="tram rail_urban rail rail_electric pedestrian ship" oneway="0" sidewalkWidth="3.00"/>
    <type id="highway.tertiary_link" priority="5" numLanes="1" speed="13.89" disallow="tram rail_urban rail rail_electric pedestrian ship" oneway="0" sidewalkWidth="2.00"/>
    <type id="highway.track" priority="1" numLanes="1" speed="5.56" disallow="tram rail_urban rail rail_electric ship" oneway="0"/>
    <type id="highway.trunk" priority="11" numLanes="2" speed="13.89" disallow="tram rail_urban rail rail_electric bicycle pedestrian ship" oneway="0"/>
    <type id="highway.trunk_link" priority="10" numLanes="1" speed="13.89" disallow="tram rail_urban rail rail_electric bicycle pedestrian ship" oneway="0"/>
    <type id="highway.unclassified" priority="5" numLanes="1" speed="13.89" disallow="tram rail_urban rail rail_electric pedestrian ship" oneway="0" sidewalkWidth="2.00"/>
    <type id="highway.unsurfaced" priority="1" numLanes="1" speed="8.33" disallow="tram rail_urban rail rail_electric ship" oneway="0"/>
    <type id="railway.light_rail" priority="15" numLanes="1" speed="27.78" allow="rail_urban" oneway="1"/>
    <type id="railway.preserved" priority="15" numLanes="1" speed="27.78" allow="rail" oneway="1"/>
    <type id="railway.rail" priority="15" numLanes="1" speed="83.33" allow="rail rail_electric" oneway="1"/>
    <type id="railway.subway" priority="15" numLanes="1" speed="27.78" allow="rail_urban" oneway="1"/>
    <type id="railway.tram" priority="15" numLanes="1" speed="13.89" allow="tram" oneway="1"/>
    <type id="route.ferry" priority="13" numLanes="1" speed="10.00" allow="ship" oneway="0" width="5.00"/>
    <type id="waterway.canal" priority="13" numLanes="1" speed="10.00" allow="ship" oneway="0" width="5.00"/>
    <type id="waterway.river" priority="13" numLanes="1" speed="10.00" allow="ship" oneway="0" width="7.00"/>

    <edge id=":1184617193_0" function="internal">
        <lane id=":1184617193_0_0" index="0" allow="delivery bicycle pedestrian" speed="5.56" length="9.19" shape="2754.68,1020.32 2745.50,1020.76"/>
    </edge>
    <edge id=":1184617193_1" function="internal">
        <lane id=":1184617193_1_0" index="0" allow="delivery bicycle pedestrian" speed="5.56" length="10.20" shape="2754.68,1020.32 2752.11,1019.95 2750.13,1018.77 2748.75,1016.80 2747.95,1014.02"/>
    </edge>
    <edge id=":1184617193_2" function="internal">
        <lane id=":1184617193_2_0" index="0" allow="delivery bicycle pedestrian" speed="5.56" length="4.82" shape="2754.68,1020.32 2753.44,1019.51 2753.02,1018.68 2753.42,1017.86 2754.65,1017.02"/>
    </edge>
    <edge id=":1184617193_3" function="internal">
        <lane id=":1184617193_3_0" index="0" allow="delivery bicycle pedestrian" speed="5.56" length="5.43" shape="2751.21,1013.51 2751.64,1015.05 2752.35,1016.15 2753.35,1016.81 2754.65,1017.02"/>
    </edge>
    <edge id=":1184617193_4" function="internal">
        <lane id=":1184617193_4_0" index="0" allow="delivery bicycle pedestrian" speed="5.56" length="10.71" shape="2751.21,1013.51 2751.25,1016.48 2750.31,1018.67 2748.40,1020.10 2745.50,1020.76"/>
    </edge>
    <edge id=":1184617193_5" function="internal">
        <lane id=":1184617193_5_0" index="0" allow="delivery bicycle pedestrian" speed="5.56" length="4.82" shape="2751.21,1013.51 2750.59,1014.86 2749.84,1015.39 2748.96,1015.12 2747.95,1014.02"/>
    </edge>
    <edge id=":1184617193_6" function="internal">
        <lane id=":1184617193_6_0" index="0" allow="delivery bicycle pedestrian" speed="5.56" length="5.09" shape="2745.24,1017.47 2746.61,1017.15 2747.52,1016.48 2747.97,1015.43 2747.95,1014.02"/>
    </edge>
    <edge id=":1184617193_7" function="internal">
        <lane id=":1184617193_7_0" index="0" allow="delivery bicycle pedestrian" speed="5.56" length="9.42" shape="2745.24,1017.47 2754.65,1017.02"/>
    </edge>
    <edge id=":1184617193_8" function="internal">
        <lane id=":1184617193_8_0" index="0" allow="delivery bicycle pedestrian" speed="5.56" length="4.82" shape="2745.24,1017.47 2746.54,1018.19 2747.01,1018.98 2746.67,1019.83 2745.50,1020.76"/>
    </edge>
    <edge id=":1184617193_w0" function="walkingarea">
        <lane id=":1184617193_w0_0" index="0" allow="pedestrian" speed="1.00" length="7.02" width="3.20" shape="2754.70,1021.92 2754.67,1018.72 2754.67,1018.62 2754.63,1015.42 2752.79,1013.26 2749.63,1013.76 2749.53,1013.77 2746.37,1014.27 2745.11,1015.87 2745.37,1019.06 2745.37,1019.16 2745.63,1022.35"/>
    </edge>
    <edge id=":1184617223_0" function="internal">
        <lane id=":1184617223_0_0" index="0" allow="delivery bicycle pedestrian" speed="5.56" length="4.82" shape="3472.71,1012.77 3473.95,1013.59 3474.37,1014.41 3473.96,1015.24 3472.73,1016.07"/>
    </edge>
    <edge id=":1676204865_0" function="internal">
        <lane id=":1676204865_0_0" index="0" allow="delivery bicycle pedestrian" speed="5.56" length="4.82" shape="3015.80,425.02 3016.62,423.78 3017.45,423.37 3018.27,423.78 3019.10,425.02"/>
    </edge>
    <edge id=":1676204872_0" function="internal">
        <lane id=":1676204872_0_0" index="0" allow="delivery bicycle pedestrian" speed="5.56" length="4.82" shape="2858.14,452.61 2859.39,453.41 2859.82,454.23 2859.42,455.06 2858.20,455.91"/>
    </edge>
    <edge id=":1676204878_0" function="internal">
        <lane id=":1676204878_0_0" index="0" allow="delivery bicycle pedestrian" speed="5.56" length="4.82" shape="2539.23,512.30 2537.99,511.47 2537.58,510.65 2537.99,509.82 2539.23,509.00"/>
    </edge>
    <edge id=":1676204880_0" function="internal">
        <lane id=":1676204880_0_0" index="0" allow="delivery bicycle pedestrian" speed="5.56" length="4.82" shape="2858.21,509.32 2859.45,510.15 2859.86,510.97 2859.45,511.80 2858.21,512.62"/>
    </edge>
    <edge id=":1676204894_0" function="internal">
        <lane id=":1676204894_0_0" index="0" allow="delivery bicycle pedestrian" speed="5.56" length="5.04" shape="3022.30,577.49 3020.92,577.62 3019.93,578.17 3019.32,579.13 3019.11,580.50"/>
    </edge>
    <edge id=":1676204894_1" function="internal">
        <lane id=":1676204894_1_0" index="0" allow="delivery bicycle pedestrian" speed="5.56" length="9.58" shape="3022.30,577.49 3012.72,577.28"/>
    </edge>
    <edge id=":1676204894_2" function="internal">
        <lane id=":1676204894_2_0" index="0" allow="delivery bicycle pedestrian" speed="5.56" length="10.42" shape="3022.30,577.49 3019.49,576.96 3017.48,575.68 3016.27,573.65 3015.87,570.88"/>
    </edge>
    <edge id=":1676204894_3" function="internal">
        <lane id=":1676204894_3_0" index="0" allow="delivery bicycle pedestrian" speed="5.56" length="4.82" shape="3022.30,577.49 3021.11,576.61 3020.73,575.77 3021.19,574.96 3022.46,574.20"/>
    </edge>
    <edge id=":1676204894_4" function="internal">
        <lane id=":1676204894_4_0" index="0" allow="delivery bicycle pedestrian" speed="5.56" length="5.28" shape="3019.17,570.87 3019.37,572.27 3019.99,573.29 3021.02,573.93 3022.46,574.20"/>
    </edge>
    <edge id=":1676204894_5" function="internal">
        <lane id=":1676204894_5_0" index="0" allow="delivery bicycle pedestrian" speed="5.56" length="9.62" shape="3019.17,570.87 3019.11,580.50"/>
    </edge>
    <edge id=":1676204894_6" function="internal">
        <lane id=":1676204894_6_0" index="0" allow="delivery bicycle pedestrian" speed="5.56" length="10.36" shape="3019.17,570.87 3018.77,573.67 3017.56,575.67 3015.54,576.87 3012.72,577.28"/>
    </edge>
    <edge id=":1676204894_7" function="internal">
        <lane id=":1676204894_7_0" index="0" allow="delivery bicycle pedestrian" speed="5.56" length="4.82" shape="3019.17,570.87 3018.34,572.11 3017.52,572.52 3016.69,572.11 3015.87,570.88"/>
    </edge>
    <edge id=":1676204894_8" function="internal">
        <lane id=":1676204894_8_0" index="0" allow="delivery bicycle pedestrian" speed="5.56" length="5.05" shape="3012.70,573.98 3014.09,573.78 3015.08,573.20 3015.67,572.23 3015.87,570.88"/>
    </edge>
    <edge id=":1676204894_9" function="internal">
        <lane id=":1676204894_9_0" index="0" allow="delivery bicycle pedestrian" speed="5.56" length="9.76" shape="3012.70,573.98 3022.46,574.20"/>
    </edge>
    <edge id=":1676204894_10" function="internal">
        <lane id=":1676204894_10_0" index="0" allow="delivery bicycle pedestrian" speed="5.56" length="10.46" shape="3012.70,573.98 3015.54,574.38 3017.55,575.60 3018.74,577.64 3019.11,580.50"/>
    </edge>
    <edge id=":1676204894_11" function="internal">
        <lane id=":1676204894_11_0" index="0" allow="delivery bicycle pedestrian" speed="5.56" length="4.82" shape="3012.70,573.98 3013.94,574.80 3014.36,575.63 3013.95,576.45 3012.72,577.28"/>
    </edge>
    <edge id=":1676204894_12" function="internal">
        <lane id=":1676204894_12_0" index="0" allow="delivery bicycle pedestrian" speed="5.56" length="5.07" shape="3015.81,580.46 3015.63,579.06 3015.06,578.07 3014.09,577.48 3012.72,577.28"/>
    </edge>
    <edge id=":1676204894_13" function="internal">
        <lane id=":1676204894_13_0" index="0" allow="delivery bicycle pedestrian" speed="5.56" length="9.58" shape="3015.81,580.46 3015.87,570.88"/>
    </edge>
    <edge id=":1676204894_14" function="internal">
        <lane id=":1676204894_14_0" index="0" allow="delivery bicycle pedestrian" speed="5.56" length="10.50" shape="3015.81,580.46 3016.26,577.60 3017.51,575.60 3019.58,574.47 3022.46,574.20"/>
    </edge>
    <edge id=":1676204894_15" function="internal">
        <lane id=":1676204894_15_0" index="0" allow="delivery bicycle pedestrian" speed="5.56" length="4.82" shape="3015.81,580.46 3016.65,579.23 3017.48,578.83 3018.30,579.25 3019.11,580.50"/>
    </edge>
    <edge id=":1676204894_w0" function="walkingarea">
        <lane id=":1676204894_w0_0" index="0" allow="pedestrian" speed="1.00" length="7.31" width="3.20" shape="3022.22,579.09 3022.38,575.90 3022.38,575.80 3022.54,572.60 3020.77,570.87 3017.57,570.87 3017.47,570.88 3014.27,570.88 3012.69,572.38 3012.71,575.58 3012.71,575.68 3012.73,578.88 3014.21,580.44 3017.41,580.48 3017.51,580.48 3020.71,580.52 3021.77,579.11 3021.39,579.22 3021.10,579.41 3020.88,579.69 3020.75,580.06"/>
    </edge>
    <edge id=":1676204901_0" function="internal">
        <lane id=":1676204901_0_0" index="0" allow="delivery bicycle pedestrian" speed="5.56" length="5.11" shape="2753.50,582.35 2753.26,580.94 2752.65,579.94 2751.67,579.35 2750.32,579.16"/>
    </edge>
    <edge id=":1676204901_1" function="internal">
        <lane id=":1676204901_1_0" index="0" allow="delivery bicycle pedestrian" speed="5.56" length="10.46" shape="2753.50,582.35 2753.80,579.49 2754.95,577.44 2756.95,576.20 2759.79,575.76"/>
    </edge>
    <edge id=":1676204901_2" function="internal">
        <lane id=":1676204901_2_0" index="0" allow="delivery bicycle pedestrian" speed="5.56" length="4.82" shape="2753.50,582.35 2754.28,581.09 2755.09,580.65 2755.93,581.03 2756.80,582.23"/>
    </edge>
    <edge id=":1676204901_3" function="internal">
        <lane id=":1676204901_3_0" index="0" allow="delivery bicycle pedestrian" speed="5.56" length="5.03" shape="2759.82,579.06 2758.46,579.27 2757.50,579.87 2756.94,580.86 2756.80,582.23"/>
    </edge>
    <edge id=":1676204901_4" function="internal">
        <lane id=":1676204901_4_0" index="0" allow="delivery bicycle pedestrian" speed="5.56" length="9.50" shape="2759.82,579.06 2750.32,579.16"/>
    </edge>
    <edge id=":1676204901_5" function="internal">
        <lane id=":1676204901_5_0" index="0" allow="delivery bicycle pedestrian" speed="5.56" length="4.82" shape="2759.82,579.06 2758.58,578.25 2758.16,577.43 2758.56,576.60 2759.79,575.76"/>
    </edge>
    <edge id=":1676204901_6" function="internal">
        <lane id=":1676204901_6_0" index="0" allow="delivery bicycle pedestrian" speed="5.56" length="9.50" shape="2750.29,575.86 2759.79,575.76"/>
    </edge>
    <edge id=":1676204901_7" function="internal">
        <lane id=":1676204901_7_0" index="0" allow="delivery bicycle pedestrian" speed="5.56" length="10.33" shape="2750.29,575.86 2753.05,576.23 2755.05,577.42 2756.30,579.42 2756.80,582.23"/>
    </edge>
    <edge id=":1676204901_8" function="internal">
        <lane id=":1676204901_8_0" index="0" allow="delivery bicycle pedestrian" speed="5.56" length="4.82" shape="2750.29,575.86 2751.53,576.67 2751.96,577.49 2751.55,578.32 2750.32,579.16"/>
    </edge>
    <edge id=":1676204901_w0" function="walkingarea">
        <lane id=":1676204901_w0_0" index="0" allow="pedestrian" speed="1.00" length="6.99" width="3.20" shape="2751.90,582.41 2755.10,582.30 2755.20,582.29 2758.40,582.18 2759.84,580.66 2759.81,577.46 2759.81,577.36 2759.77,574.16 2750.27,574.26 2750.31,577.46 2750.31,577.56 2750.34,580.76 2751.84,581.90 2751.70,581.49 2751.48,581.16 2751.18,580.93 2750.80,580.80"/>
    </edge>
    <edge id=":1676204903_0" function="internal">
        <lane id=":1676204903_0_0" index="0" allow="delivery bicycle pedestrian" speed="5.56" length="4.82" shape="2538.84,581.28 2537.59,580.47 2537.17,579.65 2537.57,578.82 2538.80,577.98"/>
    </edge>
    <edge id=":1676204905_0" function="internal">
        <lane id=":1676204905_0_0" index="0" allow="delivery bicycle pedestrian" speed="5.56" length="4.82" shape="3175.36,581.61 3176.56,582.50 3176.93,583.34 3176.48,584.14 3175.20,584.91"/>
    </edge>
    <edge id=":1676204911_0" function="internal">
        <lane id=":1676204911_0_0" index="0" allow="delivery bicycle pedestrian" speed="5.56" length="4.98" shape="2762.44,654.63 2761.09,654.83 2760.13,655.41 2759.54,656.37 2759.33,657.72"/>
    </edge>
    <edge id=":1676204911_1" function="internal">
        <lane id=":1676204911_1_0" index="0" allow="delivery bicycle pedestrian" speed="5.56" length="10.20" shape="2762.44,654.63 2759.67,654.25 2757.67,653.09 2756.41,651.15 2755.92,648.42"/>
    </edge>
    <edge id=":1676204911_2" function="internal">
        <lane id=":1676204911_2_0" index="0" allow="delivery bicycle pedestrian" speed="5.56" length="4.82" shape="2762.44,654.63 2761.20,653.81 2760.78,652.99 2761.19,652.16 2762.43,651.33"/>
    </edge>
    <edge id=":1676204911_3" function="internal">
        <lane id=":1676204911_3_0" index="0" allow="delivery bicycle pedestrian" speed="5.56" length="5.00" shape="2759.22,648.30 2759.46,649.63 2760.08,650.58 2761.07,651.15 2762.43,651.33"/>
    </edge>
    <edge id=":1676204911_4" function="internal">
        <lane id=":1676204911_4_0" index="0" allow="delivery bicycle pedestrian" speed="5.56" length="9.42" shape="2759.22,648.30 2759.33,657.72"/>
    </edge>
    <edge id=":1676204911_5" function="internal">
        <lane id=":1676204911_5_0" index="0" allow="delivery bicycle pedestrian" speed="5.56" length="4.82" shape="2759.22,648.30 2758.44,649.56 2757.63,650.01 2756.79,649.62 2755.92,648.42"/>
    </edge>
    <edge id=":1676204911_6" function="internal">
        <lane id=":1676204911_6_0" index="0" allow="delivery bicycle pedestrian" speed="5.56" length="9.25" shape="2756.03,657.67 2755.92,648.42"/>
    </edge>
    <edge id=":1676204911_7" function="internal">
        <lane id=":1676204911_7_0" index="0" allow="delivery bicycle pedestrian" speed="5.56" length="10.23" shape="2756.03,657.67 2756.46,654.91 2757.67,652.93 2759.66,651.74 2762.43,651.33"/>
    </edge>
    <edge id=":1676204911_8" function="internal">
        <lane id=":1676204911_8_0" index="0" allow="delivery bicycle pedestrian" speed="5.56" length="4.82" shape="2756.03,657.67 2756.87,656.45 2757.70,656.04 2758.52,656.47 2759.33,657.72"/>
    </edge>
    <edge id=":1676204911_w0" function="walkingarea">
        <lane id=":1676204911_w0_0" index="0" allow="pedestrian" speed="1.00" length="6.91" width="3.20" shape="2762.45,656.23 2762.43,653.03 2762.43,652.93 2762.42,649.73 2760.82,648.24 2757.62,648.36 2757.52,648.36 2754.32,648.48 2754.43,657.65 2757.63,657.69 2757.73,657.69 2760.93,657.74 2761.99,656.28 2761.61,656.40 2761.32,656.61 2761.10,656.90 2760.97,657.28"/>
    </edge>
    <edge id=":1676204917_0" function="internal">
        <lane id=":1676204917_0_0" index="0" allow="delivery bicycle pedestrian" speed="5.56" length="4.82" shape="2758.02,780.21 2757.21,781.46 2756.39,781.88 2755.56,781.48 2754.72,780.25"/>
    </edge>
    <edge id=":2147552423_0" function="internal">
        <lane id=":2147552423_0_0" index="0" allow="delivery bicycle pedestrian" speed="5.56" length="4.82" shape="2670.06,918.54 2669.39,919.86 2668.62,920.37 2667.75,920.06 2666.79,918.92"/>
    </edge>
    <edge id=":2147552423_w0" function="walkingarea">
        <lane id=":2147552423_w0_0" index="0" allow="pedestrian" speed="1.00" length="5.12" width="3.20" shape="2667.91,924.03 2669.91,923.90 2671.65,918.35 2668.48,918.73 2668.38,918.74 2665.20,919.11 2663.87,920.64 2663.92,922.64 2667.78,923.58 2667.43,923.21 2666.87,922.93 2666.10,922.75 2665.12,922.65"/>
    </edge>
    <edge id=":2147552426_0" function="internal">
        <lane id=":2147552426_0_0" index="0" allow="delivery bicycle pedestrian" speed="5.56" length="5.07" shape="2573.85,925.94 2574.04,927.39 2573.79,928.44 2573.53,929.48 2573.72,930.93"/>
    </edge>
    <edge id=":2147552426_1" function="internal">
        <lane id=":2147552426_1_0" index="0" allow="delivery bicycle pedestrian" speed="5.56" length="4.82" shape="2573.85,925.94 2573.44,927.37 2572.79,928.02 2571.87,927.88 2570.71,926.96"/>
    </edge>
    <edge id=":2147552426_w0" function="walkingarea">
        <lane id=":2147552426_w0_0" index="0" allow="pedestrian" speed="1.00" length="4.82" width="3.20" shape="2572.20,931.42 2575.24,930.44 2577.55,928.70 2577.32,926.71 2575.37,925.45 2572.33,926.43 2572.23,926.47 2569.19,927.45 2571.76,930.47 2571.25,929.86 2570.69,929.43 2570.14,929.00 2569.62,928.40"/>
    </edge>
    <edge id=":2147552429_0" function="internal">
        <lane id=":2147552429_0_0" index="0" allow="delivery bicycle pedestrian" speed="5.56" length="4.82" shape="2675.67,973.48 2674.42,972.67 2673.99,971.85 2674.39,971.02 2675.62,970.18"/>
    </edge>
    <edge id=":2147552429_1" function="internal">
        <lane id=":2147552429_1_0" index="0" allow="delivery bicycle pedestrian" speed="5.56" length="5.20" shape="2670.80,971.90 2672.27,971.62 2673.21,971.04 2674.15,970.46 2675.62,970.18"/>
    </edge>
    <edge id=":2147552429_w0" function="walkingarea">
        <lane id=":2147552429_w0_0" index="0" allow="pedestrian" speed="1.00" length="4.92" width="3.20" shape="2675.69,975.08 2675.64,971.88 2675.64,971.78 2675.59,968.58 2673.92,967.11 2671.94,967.34 2670.77,970.30 2670.83,973.50 2674.62,974.97 2673.86,974.68 2673.26,974.29 2672.66,973.90 2671.90,973.61"/>
    </edge>
    <edge id=":2147567661_0" function="internal">
        <lane id=":2147567661_0_0" index="0" allow="delivery bicycle pedestrian" speed="7.64" length="19.48" shape="2485.25,666.98 2480.79,648.03"/>
    </edge>
    <edge id=":2147567661_1" function="internal">
        <lane id=":2147567661_1_0" index="0" allow="delivery bicycle pedestrian" speed="7.64" length="27.58" shape="2485.25,666.98 2483.68,657.36 2484.70,653.45 2488.32,655.25 2494.54,662.76"/>
    </edge>
    <edge id=":2147567661_2" function="internal">
        <lane id=":2147567661_2_0" index="0" allow="delivery bicycle pedestrian" speed="5.56" length="4.82" shape="2485.25,666.98 2485.78,665.59 2486.49,665.01 2487.39,665.22 2488.47,666.24"/>
    </edge>
    <edge id=":2147567661_3" function="internal">
        <lane id=":2147567661_3_0" index="0" allow="delivery bicycle pedestrian" speed="7.64" length="10.10" shape="2491.87,664.70 2489.59,661.95 2488.27,661.29 2487.89,662.72 2488.47,666.24"/>
    </edge>
    <edge id=":2147567661_4" function="internal">
        <lane id=":2147567661_4_0" index="0" allow="delivery bicycle pedestrian" speed="9.72" length="20.09" shape="2491.87,664.70 2489.09,661.06 2485.74,656.65 2482.68,652.09 2480.79,648.03"/>
    </edge>
    <edge id=":2147567661_5" function="internal">
        <lane id=":2147567661_5_0" index="0" allow="delivery bicycle pedestrian" speed="9.72" length="2.41" shape="2491.87,664.70 2491.81,663.21 2492.23,662.40"/>
    </edge>
    <edge id=":2147567661_9" function="internal">
        <lane id=":2147567661_9_0" index="0" speed="9.72" length="2.41" shape="2492.23,662.40 2493.14,662.25 2494.54,662.76"/>
    </edge>
    <edge id=":2147567661_6" function="internal">
        <lane id=":2147567661_6_0" index="0" allow="delivery bicycle pedestrian" speed="9.72" length="18.96" shape="2483.96,647.12 2485.78,651.03 2488.66,655.23 2491.84,659.29 2494.54,662.76"/>
    </edge>
    <edge id=":2147567661_7" function="internal">
        <lane id=":2147567661_7_0" index="0" allow="delivery bicycle pedestrian" speed="7.64" length="19.65" shape="2483.96,647.12 2488.47,666.24"/>
    </edge>
    <edge id=":2147567661_8" function="internal">
        <lane id=":2147567661_8_0" index="0" allow="delivery bicycle pedestrian" speed="9.72" length="2.17" shape="2483.96,647.12 2483.50,648.54 2483.00,649.00"/>
    </edge>
    <edge id=":2147567661_10" function="internal">
        <lane id=":2147567661_10_0" index="0" speed="9.72" length="2.65" shape="2483.00,649.00 2482.82,649.16 2481.92,648.99 2480.79,648.03"/>
    </edge>
    <edge id=":2147567661_w0" function="walkingarea">
        <lane id=":2147567661_w0_0" index="0" allow="pedestrian" speed="1.00" length="13.00" width="3.20" shape="2483.69,667.34 2486.81,666.63 2486.91,666.60 2490.03,665.89 2490.57,665.64 2493.16,663.76 2493.24,663.70 2495.83,661.82 2485.50,646.69 2482.42,647.56 2482.32,647.59 2479.25,648.46"/>
    </edge>
    <edge id=":2158659705_0" function="internal">
        <lane id=":2158659705_0_0" index="0" allow="delivery bicycle pedestrian" speed="5.56" length="4.82" shape="2661.89,879.71 2662.53,878.37 2663.29,877.85 2664.16,878.14 2665.15,879.25"/>
    </edge>
    <edge id=":2164168468_0" function="internal">
        <lane id=":2164168468_0_0" index="0" disallow="tram rail_urban rail rail_electric pedestrian ship" speed="13.89" length="9.40" shape="1753.06,484.00 1751.26,484.44 1749.55,485.60 1747.95,487.48 1746.44,490.09"/>
    </edge>
    <edge id=":2164168468_1" function="internal">
        <lane id=":2164168468_1_0" index="0" disallow="tram rail_urban rail rail_electric pedestrian ship" speed="13.89" length="2.14" shape="1753.06,484.00 1751.79,483.23 1751.47,482.65"/>
    </edge>
    <edge id=":2164168468_4" function="internal">
        <lane id=":2164168468_4_0" index="0" speed="13.89" length="2.68" shape="1751.47,482.65 1751.34,482.42 1751.72,481.58 1752.92,480.70"/>
    </edge>
    <edge id=":2164168468_2" function="internal">
        <lane id=":2164168468_2_0" index="0" disallow="tram rail_urban rail rail_electric pedestrian ship" speed="13.89" length="12.94" shape="1743.48,488.63 1745.49,485.25 1747.73,482.80 1750.21,481.28 1752.92,480.70"/>
    </edge>
    <edge id=":2164168468_3" function="internal">
        <lane id=":2164168468_3_0" index="0" disallow="tram rail_urban rail rail_electric pedestrian ship" speed="13.89" length="2.58" shape="1743.48,488.63 1744.76,487.89 1745.68,487.88 1745.79,488.02"/>
    </edge>
    <edge id=":2164168468_5" function="internal">
        <lane id=":2164168468_5_0" index="0" speed="13.89" length="2.24" shape="1745.79,488.02 1746.24,488.61 1746.44,490.09"/>
    </edge>
    <edge id=":2164168468_c0" function="crossing" crossingEdges="-206666011#0 206666011#0">
        <lane id=":2164168468_c0_0" index="0" allow="pedestrian" speed="1.00" length="6.50" width="4.00" shape="1750.86,479.18 1751.12,485.68"/>
    </edge>
    <edge id=":2164168468_w0" function="walkingarea">
        <lane id=":2164168468_w0_0" index="0" allow="pedestrian" speed="1.00" length="4.87" width="4.00" shape="1747.96,490.84 1749.76,491.72 1753.21,487.70 1753.12,485.70 1752.21,485.77 1751.32,486.23 1750.44,486.95 1749.57,487.96 1748.71,489.24"/>
    </edge>
    <edge id=":2164168468_w1" function="walkingarea">
        <lane id=":2164168468_w1_0" index="0" allow="pedestrian" speed="1.00" length="9.10" width="4.00" shape="1752.86,479.10 1752.86,479.00 1752.77,477.01 1750.21,482.63 1749.24,480.88 1738.84,484.13 1739.37,486.06 1740.16,487.00 1741.95,487.88 1743.51,485.31 1745.11,483.14 1746.85,481.44 1748.72,480.20 1750.72,479.42"/>
    </edge>
    <edge id=":2164168473_0" function="internal">
        <lane id=":2164168473_0_0" index="0" disallow="tram rail_urban rail rail_electric pedestrian ship" speed="13.89" length="5.86" shape="1634.36,505.39 1633.99,511.24"/>
    </edge>
    <edge id=":2164168473_1" function="internal">
        <lane id=":2164168473_1_0" index="0" disallow="tram rail_urban rail rail_electric pedestrian ship" speed="13.89" length="2.41" shape="1634.36,505.39 1633.48,506.59 1632.64,506.96"/>
    </edge>
    <edge id=":2164168473_4" function="internal">
        <lane id=":2164168473_4_0" index="0" speed="13.89" length="2.41" shape="1632.64,506.96 1631.83,506.51 1631.06,505.24"/>
    </edge>
    <edge id=":2164168473_2" function="internal">
        <lane id=":2164168473_2_0" index="0" disallow="tram rail_urban rail rail_electric pedestrian ship" speed="13.89" length="5.65" shape="1630.71,510.88 1631.06,505.24"/>
    </edge>
    <edge id=":2164168473_3" function="internal">