<?xml version="1.0" encoding="UTF-8"?>
<!-- generated on 2018-10-15 11:34:28.348986 by $Id$ via randomTrips.py
  options:
-->
<routes xmlns:xsi="http://www.w3.org/2001/XMLSchema-instance" xsi:noNamespaceSchemaLocation="http://sumo.dlr.de/xsd/routes_file.xsd">
    <vType id="passenger" speedFactor="normc(1.00,0.10,0.20,2.00)" vClass="passenger">
      </vType>
      <!--
      # Subroute_1 "@@ main_gate_to_gajendra_circle_via_non_bus_route 24730643 24730643
      318477798#3 -318477797 -24730644#23 -24730644#22 -24730644#21 -24730644#19 -24730644#18
      -24730644#17 -24730644#15 -24730644#14 -24730644#13 -24730644#12 -24730644#11 -24730644#10
      -24730644#9 -24730644#8 -24730644#7 -24730644#6 -24730644#5 -24730644#4 -24730644#2 -24730644#1
      -24730644#0  @@end_at_gajendra_circle"

      # Subroute_2 "@@ gajendra_circle_to_cs_dept_via_oat 24730651#0 24730651#1 24730651#2 24730651#3
      24730651#4 24730651#6 24730651#7 24730651#8 24730651#10 -30029209#5 -30029209#4 -30029209#3
      -30029209#2 -30029209#1 @@end_at_cs_dept"

      # Subroute_3 "@@ main_gate_to_gajendra_circle_via_bus_route 24730643 24730643 318477798#3
      -318477797 -318477795 331649598#1 330222366#0 330222366#1 330222366#3 330222366#4
      330222366#5 330222366#6 330222367#0 330222367#1 330222367#2 330222367#3 330222367#4 330222367#5
      330222367#6 330222367#7 330222367#8 330222367#9 330222367#10 330222367#11 330222367#12 @@end_at_gajendra_circle"

      # Subroute_4 "@@ gajendra_cicle_to_cs_dept_via_insti_hospital_road 191207584#0
      191207584#1 191207584#2 191207584#4 191207584#5 191207584#7 191207584#8 191207584#9
      191207584#10 30029209#0 30029209#1 @@end_at_cs_dept"

      # Subroute_5 "@@ main_gate_to_gajendra_circle_via_dont_know 24730643 24730643 318477798#3
      -318477797 -318477795 331649598#1 321823978#0 321823978#1 321823978#2 321823978#3 321823978#4
       321823978#5 321823978#6 321823978#7 321823978#8 321823978#9 321823978#10 321823978#11 321823978#12
       321823978#14 321823978#15 321823978#16 321823978#17 321823978#18 321823978#20 321823978#21 333396429
        30036615 -27768549#1 -27768549#0 191207584#4 191207584#5 191207584#7 191207584#8
         191207584#9 191207584#10 30029209#0 30029209#1 @@end_at_cs_dept"
       -->

       <!-- # Route0 @@ main_gate_to_cs_dept_via_non_bus_route_and_oat -->
      <route id="route1" edges=" -318477797 -24730644#23
        -24730644#22 -24730644#21 -24730644#19 -24730644#18 -24730644#17 -24730644#15
        -24730644#14 -24730644#13 -24730644#12 -24730644#11 -24730644#10 -24730644#9
        -24730644#8 -24730644#7 -24730644#6 -24730644#5 -24730644#4 -24730644#2
        -24730644#1 -24730644#0  24730647#2  24730651#0 24730651#1 24730651#2 24730651#3
        24730651#4 24730651#6 24730651#7 24730651#8 24730651#10 -30029209#5 -30029209#4
        -30029209#3 -30029209#2 -30029209#1 " color="1,0,0"/>

      <!-- # Route1 @@ main_gate_to_cs_dept_via_bus_route_and_Insti_hospital -->
      <route id="route2" edges=" -318477797 -318477795
        331649598#1 330222366#0 330222366#1 330222366#3 330222366#4 330222366#5
        330222366#6 330222367#0 330222367#1 330222367#2 330222367#3 330222367#4 330222367#5
        330222367#6 330222367#7 330222367#8 330222367#9 330222367#10 330222367#11 330222367#12
        24730647#1 24730647#2 191207584#0 191207584#1 191207584#2 191207584#4 191207584#5 191207584#7
        191207584#8 191207584#9 191207584#10 30029209#0 30029209#1 " color="0,1,0"/>

      <!-- # Route2 @@ main_gate_to_cs_dept_via_non_bus_route_then_Insti_hospital -->
      <route id="route3" edges=" -318477797 -24730644#23 -24730644#22
        -24730644#21 -24730644#19 -24730644#18 -24730644#17 -24730644#15 -24730644#14 -24730644#13
        -24730644#12 -24730644#11 -24730644#10 -24730644#9 -24730644#8 -24730644#7 -24730644#6 -24730644#5
        -24730644#4 -24730644#2 -24730644#1 -24730644#0 24730647#2 191207584#0 191207584#1
        191207584#2 191207584#4 191207584#5 191207584#7 191207584#8 191207584#9 191207584#10 30029209#0
        30029209#1" color="0,0,1"/>

      <!-- # Route3 @@ main_gate_to_cs_dept_via_bus_route_then_oat -->
      <route id="route4" edges=" -318477797 -318477795 331649598#1
        330222366#0 330222366#1 330222366#3 330222366#4 330222366#5 330222366#6 330222367#0
        330222367#1 330222367#2 330222367#3 330222367#4 330222367#5 330222367#6 330222367#7 330222367#8
        330222367#9 330222367#10 330222367#11 330222367#12 24730647#1 24730647#2 24730651#0 24730651#1
        24730651#2 24730651#3 24730651#4 24730651#6 24730651#7 24730651#8 24730651#10 -30029209#5
        -30029209#4 -30029209#3 -30029209#2 -30029209#1" color="1,1,0"/>

      <!-- # Route4 @@ main_gate_to_gajendra_circle_via_dont_know -->
      <route id="route5" edges="  -318477797 -318477795 331649598#1 321823978#0 321823978#1 321823978#2 321823978#3
        321823978#4 321823978#5 321823978#6 321823978#7 321823978#8 321823978#9 321823978#10 321823978#11
        321823978#12 321823978#14 321823978#15 321823978#16 321823978#17 321823978#18 321823978#20
        321823978#21 333396429 30036615 -27768549#1 -27768549#0 191207584#4 191207584#5 191207584#7
        191207584#8 191207584#9 191207584#10 30029209#0 30029209#1" color="1,1,1"/>


    <trip id="veh0" depart="0.00" departLane="best" from="24730644#21" to="-191207584#5" type="passenger"/>
    <trip id="veh4" depart="10.79" departLane="best" from="-330222366#0" to="-191207584#9" type="passenger"/>
    <trip id="veh5" depart="13.49" departLane="best" from="-24730651#0" to="191207584#8" type="passenger"/>
    <trip id="veh6" depart="16.18" departLane="best" from="-102580576#4" to="-27768547#1" type="passenger"/>
    <trip id="veh13" depart="35.07" departLane="best" from="-207145445" to="-24730642#10" type="passenger"/>
    <trip id="veh24" depart="64.74" departLane="best" from="24730644#19" to="-321823978#11" type="passenger"/>
    <trip id="veh28" depart="75.53" departLane="best" from="-24730642#5" to="24730653#1" type="passenger"/>
    <trip id="veh29" depart="78.23" departLane="best" from="-24730642#10" to="-321823978#20" type="passenger"/>
    <trip id="veh31" depart="83.62" departLane="best" from="218164911" to="24730644#21" type="passenger"/>
    <trip id="veh33" depart="89.02" departLane="best" from="-30029227#2" to="-30029227#1" type="passenger"/>
    <trip id="veh34" depart="91.71" departLane="best" from="-24730644#6" to="330222366#4" type="passenger"/>
    <trip id="veh41" depart="110.60" departLane="best" from="35572872#1" to="206632633" type="passenger"/>
    <trip id="veh46" depart="124.08" departLane="best" from="35572872#0" to="207145437" type="passenger"/>
    <trip id="veh47" depart="126.78" departLane="best" from="330222367#8" to="30029312#4" type="passenger"/>
    <trip id="veh48" depart="129.48" departLane="best" from="-102580576#1" to="24730651#6" type="passenger"/>
    <trip id="veh52" depart="140.27" departLane="best" from="30444184#0" to="-30029227#0" type="passenger"/>
    <trip id="veh53" depart="142.97" departLane="best" from="191207584#0" to="-24730653#4" type="passenger"/>
    <trip id="veh54" depart="145.66" departLane="best" from="321823978#16" to="30036609" type="passenger"/>
    <trip id="veh56" depart="151.06" departLane="best" from="24730642#6" to="-24730651#0" type="passenger"/>
    <trip id="veh59" depart="159.15" departLane="best" from="-102580563" to="-30029312#11" type="passenger"/>
    <trip id="veh60" depart="161.85" departLane="best" from="-102580576#4" to="321823978#6" type="passenger"/>
    <trip id="veh64" depart="172.64" departLane="best" from="-207145441" to="191207584#0" type="passenger"/>
    <trip id="veh67" depart="180.73" departLane="best" from="-35573057" to="207145445" type="passenger"/>
    <trip id="veh72" depart="194.22" departLane="best" from="35572872#0" to="24730642#4" type="passenger"/>
    <trip id="veh74" depart="199.61" departLane="best" from="-218164908#0" to="-28234119" type="passenger"/>
    <trip id="veh77" depart="207.70" departLane="best" from="-207145437" to="24730640#1" type="passenger"/>
    <trip id="veh78" depart="210.40" departLane="best" from="-24730651#4" to="321823978#12" type="passenger"/>
    <trip id="veh80" depart="215.80" departLane="best" from="-24730644#8" to="-24730644#19" type="passenger"/>
    <trip id="veh81" depart="218.49" departLane="best" from="321823978#9" to="211260242#1" type="passenger"/>
    <trip id="veh82" depart="221.19" departLane="best" from="-35573057" to="28234118#2" type="passenger"/>
    <trip id="veh84" depart="226.59" departLane="best" from="-207145445" to="-330222367#9" type="passenger"/>
    <trip id="veh86" depart="231.98" departLane="best" from="27768549#1" to="24730644#14" type="passenger"/>
    <trip id="veh88" depart="237.38" departLane="best" from="-321823978#2" to="-30036609" type="passenger"/>
    <trip id="veh89" depart="240.07" departLane="best" from="30029312#4" to="-30029209#1" type="passenger"/>
    <trip id="veh92" depart="248.17" departLane="best" from="-25649885#2" to="321823978#3" type="passenger"/>
    <trip id="veh93" depart="250.86" departLane="best" from="-330222367#2" to="30029312#6" type="passenger"/>
    <trip id="veh96" depart="258.96" departLane="best" from="330222367#7" to="321823978#4" type="passenger"/>
    <trip id="veh98" depart="264.35" departLane="best" from="102580576#1" to="-28234118#0" type="passenger"/>
    <trip id="veh102" depart="275.14" departLane="best" from="-330222367#8" to="-330222367#5" type="passenger"/>
    <trip id="veh104" depart="280.54" departLane="best" from="218164908#5" to="24730651#4" type="passenger"/>
    <trip id="veh109" depart="294.02" departLane="best" from="-218164915" to="330222367#3" type="passenger"/>
    <trip id="veh110" depart="296.72" departLane="best" from="-207145437" to="-25649885#3" type="passenger"/>
    <trip id="veh111" depart="299.42" departLane="best" from="24730642#0" to="24730644#15" type="passenger"/>
    <trip id="veh112" depart="302.12" departLane="best" from="318477798#3" to="-30029209#0" type="passenger"/>
    <trip id="veh115" depart="310.21" departLane="best" from="206632633" to="321823978#9" type="passenger"/>
    <trip id="veh116" depart="312.91" departLane="best" from="-24730644#22" to="24730651#2" type="passenger"/>
    <trip id="veh117" depart="315.60" departLane="best" from="-24730653#1" to="-330222366#0" type="passenger"/>
    <trip id="veh121" depart="326.39" departLane="best" from="-207145437" to="-28234118#0" type="passenger"/>
    <trip id="veh124" depart="334.48" departLane="best" from="-30029312#9" to="-24730651#10" type="passenger"/>
    <trip id="veh127" depart="342.58" departLane="best" from="24730644#8" to="-191207584#0" type="passenger"/>
    <trip id="veh129" depart="347.97" departLane="best" from="24730647#4" to="330222366#1" type="passenger"/>
    <trip id="veh130" depart="350.67" departLane="best" from="-218164910" to="-24730644#1" type="passenger"/>
    <trip id="veh132" depart="356.06" departLane="best" from="27369330#0" to="-27768549#1" type="passenger"/>
    <trip id="veh134" depart="361.46" departLane="best" from="102580576#3" to="321823978#11" type="passenger"/>
    <trip id="veh137" depart="369.55" departLane="best" from="-102580563" to="27768547#2" type="passenger"/>
    <trip id="veh140" depart="377.64" departLane="best" from="-330222366#4" to="-191207584#1" type="passenger"/>
    <trip id="veh141" depart="380.34" departLane="best" from="-207145437" to="319828651#2" type="passenger"/>
    <trip id="veh144" depart="388.43" departLane="best" from="-218164914#1" to="-24730644#17" type="passenger"/>
    <trip id="veh145" depart="391.13" departLane="best" from="-30029209#4" to="321823978#0" type="passenger"/>
    <trip id="veh148" depart="399.22" departLane="best" from="-25649885#2" to="-24730642#4" type="passenger"/>
    <trip id="veh149" depart="401.92" departLane="best" from="30029209#0" to="319828651#2" type="passenger"/>
    <trip id="veh151" depart="407.32" departLane="best" from="-218164915" to="321823978#6" type="passenger"/>
    <trip id="veh152" depart="410.01" departLane="best" from="30029312#7" to="331649600" type="passenger"/>
    <trip id="veh154" depart="415.41" departLane="best" from="-102580576#4" to="24730725#2" type="passenger"/>
    <trip id="veh157" depart="423.50" departLane="best" from="30029209#3" to="-24730642#6" type="passenger"/>
    <trip id="veh158" depart="426.20" departLane="best" from="30036615" to="30029312#3" type="passenger"/>
    <trip id="veh161" depart="434.29" departLane="best" from="30029227#0" to="-28404800#0" type="passenger"/>
    <trip id="veh166" depart="447.78" departLane="best" from="330222366#1" to="-24730644#1" type="passenger"/>
    <trip id="veh167" depart="450.48" departLane="best" from="330222367#8" to="-24730653#4" type="passenger"/>
    <trip id="veh169" depart="455.87" departLane="best" from="-207147909" to="-331649598#1" type="passenger"/>
    <trip id="veh171" depart="461.27" departLane="best" from="24730642#5" to="206632640#0" type="passenger"/>
    <trip id="veh172" depart="463.96" departLane="best" from="-321823978#1" to="211260242#1" type="passenger"/>
    <trip id="veh173" depart="466.66" departLane="best" from="-25649885#5" to="24730651#0" type="passenger"/>
    <trip id="veh174" depart="469.36" departLane="best" from="-102580563" to="321823978#4" type="passenger"/>
    <trip id="veh178" depart="480.15" departLane="best" from="24730651#0" to="-30029312#7" type="passenger"/>
    <trip id="veh181" depart="488.24" departLane="best" from="-30029209#4" to="-330222367#0" type="passenger"/>
    <trip id="veh183" depart="493.64" departLane="best" from="-218164908#3" to="-330222367#3" type="passenger"/>
    <trip id="veh184" depart="496.33" departLane="best" from="330222366#1" to="24730644#17" type="passenger"/>
    <trip id="veh191" depart="515.21" departLane="best" from="-35573057" to="321823978#1" type="passenger"/>
    <trip id="veh193" depart="520.61" departLane="best" from="-207145441" to="206633608#1" type="passenger"/>
    <trip id="veh194" depart="523.31" departLane="best" from="24730644#18" to="-30029312#9" type="passenger"/>
    <trip id="veh197" depart="531.40" departLane="best" from="-24730644#2" to="-191207584#5" type="passenger"/>
    <trip id="veh200" depart="539.49" departLane="best" from="-321823978#6" to="24730640#1" type="passenger"/>
    <trip id="veh201" depart="542.19" departLane="best" from="-24730644#17" to="24730644#6" type="passenger"/>
    <trip id="veh204" depart="550.28" departLane="best" from="28234118#0" to="27768547#1" type="passenger"/>
    <trip id="veh205" depart="552.98" departLane="best" from="-207147909" to="-330222367#6" type="passenger"/>
    <trip id="veh208" depart="561.07" departLane="best" from="-330222367#9" to="30029209#2" type="passenger"/>
    <trip id="veh210" depart="566.47" departLane="best" from="24730642#0" to="330222367#1" type="passenger"/>
    <trip id="veh216" depart="582.65" departLane="best" from="-25649885#1" to="24730640#1" type="passenger"/>
    <trip id="veh220" depart="593.44" departLane="best" from="-27768547#1" to="-30029312#1" type="passenger"/>
    <trip id="veh222" depart="598.84" departLane="best" from="-24730651#6" to="24730644#5" type="passenger"/>
    <trip id="veh230" depart="620.42" departLane="best" from="30029312#1" to="330222367#10" type="passenger"/>
    <trip id="veh231" depart="623.11" departLane="best" from="-321823978#9" to="25649885#3" type="passenger"/>
    <trip id="veh233" depart="628.51" departLane="best" from="-330222367#1" to="-191207584#9" type="passenger"/>
    <trip id="veh235" depart="633.90" departLane="best" from="-321823978#20" to="-24730651#6" type="passenger"/>
    <trip id="veh236" depart="636.60" departLane="best" from="-35572872#0" to="-24730644#17" type="passenger"/>
    <trip id="veh237" depart="639.30" departLane="best" from="24730644#11" to="-191207584#7" type="passenger"/>
    <trip id="veh239" depart="644.69" departLane="best" from="-191207584#0" to="24730642#1" type="passenger"/>
    <trip id="veh240" depart="647.39" departLane="best" from="-218164910" to="102580563" type="passenger"/>
    <trip id="veh241" depart="650.09" departLane="best" from="-206632633" to="-321823978#20" type="passenger"/>
    <trip id="veh242" depart="652.79" departLane="best" from="-24730644#6" to="-30029312#5" type="passenger"/>
    <trip id="veh246" depart="663.58" departLane="best" from="-102580576#4" to="207145441" type="passenger"/>
    <trip id="veh250" depart="674.36" departLane="best" from="330222367#0" to="-27768547#2" type="passenger"/>
    <trip id="veh251" depart="677.06" departLane="best" from="-102580576#4" to="-24730644#9" type="passenger"/>
    <trip id="veh252" depart="679.76" departLane="best" from="-218164908#3" to="24730644#12" type="passenger"/>
    <trip id="veh253" depart="682.46" departLane="best" from="218164911" to="-28234118#0" type="passenger"/>
    <trip id="veh256" depart="690.55" departLane="best" from="28234118#0" to="-24730644#1" type="passenger"/>
    <trip id="veh258" depart="695.94" departLane="best" from="-207147909" to="-191207584#7" type="passenger"/>
    <trip id="veh260" depart="701.34" departLane="best" from="330222367#2" to="-330222366#0" type="passenger"/>
    <trip id="veh263" depart="709.43" departLane="best" from="-207147909" to="27768549#0" type="passenger"/>
    <trip id="veh267" depart="720.22" departLane="best" from="-330222366#5" to="-321823978#15" type="passenger"/>
    <trip id="veh268" depart="722.92" departLane="best" from="191207584#11" to="-30036615" type="passenger"/>
    <trip id="veh270" depart="728.31" departLane="best" from="-207147909" to="330222367#3" type="passenger"/>
    <trip id="veh272" depart="733.71" departLane="best" from="25649885#0" to="-331649598#1" type="passenger"/>
    <trip id="veh273" depart="736.41" departLane="best" from="28233736#1" to="330222367#6" type="passenger"/>
    <trip id="veh274" depart="739.10" departLane="best" from="-27768547#0" to="30029209#5" type="passenger"/>
    <trip id="veh278" depart="749.89" departLane="best" from="30444184#0" to="-28404800#5" type="passenger"/>
    <trip id="veh280" depart="755.29" departLane="best" from="-318477795" to="-191207584#8" type="passenger"/>
    <trip id="veh281" depart="757.99" departLane="best" from="30029312#0" to="-25649885#1" type="passenger"/>
    <trip id="veh282" depart="760.68" departLane="best" from="-24730644#6" to="30029209#0" type="passenger"/>
    <trip id="veh285" depart="768.78" departLane="best" from="-102580576#0" to="330222367#0" type="passenger"/>
    <trip id="veh286" depart="771.47" departLane="best" from="-207145441" to="24730651#4" type="passenger"/>
    <trip id="veh290" depart="782.26" departLane="best" from="-207145445" to="-28234118#1" type="passenger"/>
    <trip id="veh292" depart="787.66" departLane="best" from="218164914#1" to="102580576#3" type="passenger"/>
    <trip id="veh293" depart="790.36" departLane="best" from="206633608#1" to="-330222367#6" type="passenger"/>
    <trip id="veh294" depart="793.05" departLane="best" from="28234118#0" to="-30029312#7" type="passenger"/>
    <trip id="veh296" depart="798.45" departLane="best" from="-25649885#3" to="-24730644#12" type="passenger"/>
    <trip id="veh297" depart="801.15" departLane="best" from="-24730644#15" to="-24730644#11" type="passenger"/>
    <trip id="veh298" depart="803.84" departLane="best" from="214599085#0" to="27430119#1" type="passenger"/>
    <trip id="veh300" depart="809.24" departLane="best" from="102580576#1" to="24730651#8" type="passenger"/>
    <trip id="veh302" depart="814.63" departLane="best" from="-28233736#2" to="-24730642#3" type="passenger"/>
    <trip id="veh304" depart="820.03" departLane="best" from="-24730644#0" to="-191207584#11" type="passenger"/>
    <trip id="veh305" depart="822.73" departLane="best" from="214599085#0" to="-30029232#0" type="passenger"/>
    <trip id="veh308" depart="830.82" departLane="best" from="30029312#9" to="191207584#11" type="passenger"/>
    <trip id="veh309" depart="833.51" departLane="best" from="30036615" to="211260242#1" type="passenger"/>
    <trip id="veh314" depart="847.00" departLane="best" from="-207145437" to="24730640#1" type="passenger"/>
    <trip id="veh315" depart="849.70" departLane="best" from="-206632640#1" to="-24730644#8" type="passenger"/>
    <trip id="veh321" depart="865.88" departLane="best" from="-330222367#2" to="30029312#4" type="passenger"/>
    <trip id="veh325" depart="876.67" departLane="best" from="24730647#2" to="-24730651#10" type="passenger"/>
    <trip id="veh329" depart="887.46" departLane="best" from="-24730651#7" to="24730647#4" type="passenger"/>
    <trip id="veh332" depart="895.56" departLane="best" from="24730647#2" to="321823978#8" type="passenger"/>
    <trip id="veh334" depart="900.95" departLane="best" from="24730644#4" to="321823978#14" type="passenger"/>
    <trip id="veh337" depart="909.04" departLane="best" from="28234118#0" to="211260242#1" type="passenger"/>
    <trip id="veh338" depart="911.74" departLane="best" from="-28234118#2" to="-24730644#14" type="passenger"/>
    <trip id="veh339" depart="914.44" departLane="best" from="24730653#4" to="24730644#8" type="passenger"/>
    <trip id="veh340" depart="917.14" departLane="best" from="330222366#4" to="191207584#5" type="passenger"/>
    <trip id="veh341" depart="919.83" departLane="best" from="131945992" to="-218164913#0" type="passenger"/>
    <trip id="veh342" depart="922.53" departLane="best" from="-191207584#2" to="-330222367#9" type="passenger"/>
    <trip id="veh344" depart="927.93" departLane="best" from="-207145445" to="330222367#4" type="passenger"/>
    <trip id="veh349" depart="941.41" departLane="best" from="-35572874" to="24730642#5" type="passenger"/>
    <trip id="veh350" depart="944.11" departLane="best" from="321823978#18" to="-25649885#1" type="passenger"/>
    <trip id="veh351" depart="946.81" departLane="best" from="22922908#0" to="24730640#1" type="passenger"/>
    <trip id="veh352" depart="949.51" departLane="best" from="131945992" to="-218164914#1" type="passenger"/>
    <trip id="veh355" depart="957.60" departLane="best" from="-28234118#2" to="330222366#5" type="passenger"/>
    <trip id="veh359" depart="968.39" departLane="best" from="-321823978#20" to="206633608#0" type="passenger"/>
    <trip id="veh362" depart="976.48" departLane="best" from="-24730644#13" to="-321823978#10" type="passenger"/>
    <trip id="veh363" depart="979.18" departLane="best" from="28234118#1" to="218164915" type="passenger"/>
    <trip id="veh364" depart="981.88" departLane="best" from="28234118#3" to="-27768549#1" type="passenger"/>
    <trip id="veh365" depart="984.57" departLane="best" from="218164908#2" to="321823978#5" type="passenger"/>
    <trip id="veh366" depart="987.27" departLane="best" from="-330222367#11" to="24730644#7" type="passenger"/>
    <trip id="veh367" depart="989.97" departLane="best" from="-218164908#0" to="331649598#1" type="passenger"/>
    <trip id="veh369" depart="995.36" departLane="best" from="-218164915" to="207145445" type="passenger"/>
    <trip id="veh370" depart="998.06" departLane="best" from="218164908#3" to="-24730642#0" type="passenger"/>
    <trip id="veh372" depart="1003.45" departLane="best" from="-333396429" to="-24730644#10" type="passenger"/>
    <trip id="veh374" depart="1008.85" departLane="best" from="25649885#5" to="206632633" type="passenger"/>
    <trip id="veh377" depart="1016.94" departLane="best" from="218164908#3" to="-321823978#3" type="passenger"/>
    <trip id="veh378" depart="1019.64" departLane="best" from="321823978#21" to="206632633" type="passenger"/>
    <trip id="veh384" depart="1035.82" departLane="best" from="131945992" to="-24730644#7" type="passenger"/>
    <trip id="veh385" depart="1038.52" departLane="best" from="214599085#0" to="-30444184#0" type="passenger"/>
    <trip id="veh386" depart="1041.22" departLane="best" from="218164908#3" to="207145441" type="passenger"/>
    <trip id="veh387" depart="1043.92" departLane="best" from="-330222367#9" to="-30029312#10" type="passenger"/>
    <trip id="veh388" depart="1046.61" departLane="best" from="-24730644#13" to="24730644#7" type="passenger"/>
    <trip id="veh390" depart="1052.01" departLane="best" from="28404800#3" to="-214599085#0" type="passenger"/>
    <trip id="veh394" depart="1062.80" departLane="best" from="333396429" to="191207584#13" type="passenger"/>
    <trip id="veh395" depart="1065.50" departLane="best" from="-191207584#13" to="191207584#7" type="passenger"/>
    <trip id="veh399" depart="1076.29" departLane="best" from="27768547#0" to="-330222367#1" type="passenger"/>
    <trip id="veh400" depart="1078.98" departLane="best" from="24730644#8" to="-24730651#0" type="passenger"/>
    <trip id="veh401" depart="1081.68" departLane="best" from="-35572872#1" to="330222367#8" type="passenger"/>
    <trip id="veh403" depart="1087.08" departLane="best" from="24730644#5" to="30029312#1" type="passenger"/>
    <trip id="veh404" depart="1089.77" departLane="best" from="-318477795" to="-30029312#0" type="passenger"/>
    <trip id="veh406" depart="1095.17" departLane="best" from="30036615" to="-206632640#1" type="passenger"/>
    <trip id="veh409" depart="1103.26" departLane="best" from="28234118#0" to="-331649598#0" type="passenger"/>
    <trip id="veh410" depart="1105.96" departLane="best" from="-207145445" to="24730640#1" type="passenger"/>
    <trip id="veh415" depart="1119.45" departLane="best" from="-218164914#0" to="207145437" type="passenger"/>
    <trip id="veh419" depart="1130.24" departLane="best" from="-24730653#2" to="321823978#16" type="passenger"/>
    <trip id="veh420" depart="1132.93" departLane="best" from="-218164912" to="102580563" type="passenger"/>
    <trip id="veh421" depart="1135.63" departLane="best" from="-25649885#4" to="-30029209#5" type="passenger"/>
    <trip id="veh422" depart="1138.33" departLane="best" from="-102580563" to="30029209#3" type="passenger"/>
    <trip id="veh423" depart="1141.03" departLane="best" from="321823978#1" to="24730644#18" type="passenger"/>
    <trip id="veh426" depart="1149.12" departLane="best" from="24730644#21" to="-330222367#5" type="passenger"/>
    <trip id="veh428" depart="1154.51" departLane="best" from="-24730644#2" to="-321823978#4" type="passenger"/>
    <trip id="veh430" depart="1159.91" departLane="best" from="218164913#0" to="211260242#1" type="passenger"/>
    <trip id="veh434" depart="1170.70" departLane="best" from="24730653#2" to="25649885#1" type="passenger"/>
    <trip id="veh436" depart="1176.09" departLane="best" from="131945992" to="321823978#11" type="passenger"/>
    <trip id="veh437" depart="1178.79" departLane="best" from="-28234118#1" to="30029209#0" type="passenger"/>
    <trip id="veh441" depart="1189.58" departLane="best" from="24730644#14" to="321823978#10" type="passenger"/>
    <trip id="veh444" depart="1197.67" departLane="best" from="28233736#1" to="-218164914#0" type="passenger"/>
    <trip id="veh447" depart="1205.76" departLane="best" from="206633608#1" to="321823978#17" type="passenger"/>
    <trip id="veh448" depart="1208.46" departLane="best" from="30029237#2" to="-30029227#0" type="passenger"/>
    <trip id="veh452" depart="1219.25" departLane="best" from="330222367#4" to="-24730644#23" type="passenger"/>
    <trip id="veh453" depart="1221.95" departLane="best" from="330222367#6" to="30029312#4" type="passenger"/>
    <trip id="veh454" depart="1224.65" departLane="best" from="330222367#6" to="30029209#3" type="passenger"/>
    <trip id="veh456" depart="1230.04" departLane="best" from="-102580576#2" to="207145437" type="passenger"/>
    <trip id="veh457" depart="1232.74" departLane="best" from="-330222367#8" to="24730644#14" type="passenger"/>
    <trip id="veh461" depart="1243.53" departLane="best" from="-102580576#4" to="319828651#3" type="passenger"/>
    <trip id="veh462" depart="1246.23" departLane="best" from="218164911" to="321823978#18" type="passenger"/>
    <trip id="veh465" depart="1254.32" departLane="best" from="-30029209#1" to="-330222367#0" type="passenger"/>
    <trip id="veh466" depart="1257.02" departLane="best" from="-218164910" to="330222366#6" type="passenger"/>
    <trip id="veh467" depart="1259.71" departLane="best" from="-30029209#2" to="191207584#12" type="passenger"/>
    <trip id="veh468" depart="1262.41" departLane="best" from="-207145445" to="319828651#4" type="passenger"/>
    <trip id="veh469" depart="1265.11" departLane="best" from="24730651#2" to="25649885#0" type="passenger"/>
    <trip id="veh470" depart="1267.81" departLane="best" from="330222366#5" to="-330222367#3" type="passenger"/>
    <trip id="veh472" depart="1273.20" departLane="best" from="-321823978#6" to="-24730642#2" type="passenger"/>
    <trip id="veh473" depart="1275.90" departLane="best" from="102580576#3" to="-330222367#0" type="passenger"/>
    <trip id="veh474" depart="1278.60" departLane="best" from="330222367#1" to="-206632633" type="passenger"/>
    <trip id="veh476" depart="1283.99" departLane="best" from="330222367#1" to="30029312#11" type="passenger"/>
    <trip id="veh477" depart="1286.69" departLane="best" from="-207145445" to="24730644#22" type="passenger"/>
    <trip id="veh479" depart="1292.08" departLane="best" from="-30029312#11" to="-330222366#1" type="passenger"/>
    <trip id="veh481" depart="1297.48" departLane="best" from="24730647#4" to="24730642#1" type="passenger"/>
    <trip id="veh482" depart="1300.18" departLane="best" from="24730642#1" to="-191207584#4" type="passenger"/>
    <trip id="veh484" depart="1305.57" departLane="best" from="-218164908#2" to="207147909" type="passenger"/>
    <trip id="veh487" depart="1313.66" departLane="best" from="-218164914#1" to="321823978#1" type="passenger"/>
    <trip id="veh488" depart="1316.36" departLane="best" from="-102580563" to="30029312#3" type="passenger"/>