<?xml version="1.0" encoding="UTF-8"?>

<!-- generated on Mon Oct 15 11:34:29 2018 by SUMO duarouter Version 0.32.0
<?xml version="1.0" encoding="UTF-8"?>

<configuration xmlns:xsi="http://www.w3.org/2001/XMLSchema-instance" xsi:noNamespaceSchemaLocation="http://sumo.dlr.de/xsd/duarouterConfiguration.xsd">

    <input>
        <net-file value="osm.net.xml"/>
        <route-files value="osm.bus.trips.xml"/>
    </input>

    <output>
        <output-file value="osm.bus.rou.xml"/>
        <alternatives-output value="osm.bus.rou.alt.xml"/>
    </output>

    <processing>
        <ignore-errors value="true"/>
    </processing>

    <time>
        <begin value="0"/>
        <end value="10000.0"/>
    </time>

    <report>
        <no-warnings value="true"/>
        <no-step-log value="true"/>
    </report>

</configuration>
-->

<routes xmlns:xsi="http://www.w3.org/2001/XMLSchema-instance" xsi:noNamespaceSchemaLocation="http://sumo.dlr.de/xsd/routes_file.xsd">
    <vType id="bus" vClass="bus"/>
    <vehicle id="bus0" type="bus" depart="0.00" departLane="best">
        <route edges="24730644#21 -24730644#21 -24730644#19 -24730644#18 -24730644#17 -24730644#15 -24730644#14 -24730644#13 -24730644#12 -24730644#11 -24730644#10 -24730644#9 -24730644#8 -24730644#7 -24730644#6 -24730644#5 -24730644#4 -24730644#2 -24730644#1 -24730644#0 24730647#2 191207584#0 191207584#1 191207584#2 191207584#4 191207584#5 -191207584#5"/>
    </vehicle>
    <vehicle id="bus4" type="bus" depart="32.37" departLane="best">
        <route edges="-330222366#0 330222366#0 330222366#1 330222366#3 330222366#4 330222366#5 330222366#6 330222367#0 330222367#1 330222367#2 -24730653#3 -24730653#2 -24730653#1 -24730653#0 -24730644#12 -24730644#11 -24730644#10 -24730644#9 -24730644#8 -24730644#7 -24730644#6 -24730644#5 -24730644#4 -24730644#2 -24730644#1 -24730644#0 24730647#2 191207584#0 191207584#1 191207584#2 191207584#4 191207584#5 191207584#7 191207584#8 191207584#9 -191207584#9"/>
    </vehicle>
    <vehicle id="bus5" type="bus" depart="40.46" departLane="best">
        <route edges="-102580576#4 -102580576#3 -102580576#2 -218164908#5 -218164908#4 -218164908#3 -218164908#2 -218164908#1 -218164908#0 35572872#0 35572872#1 28234118#1 28234118#2 28234118#3 -28233736#2 -28233736#1 -28233736#0 95641233 24730643 318477798#3 -318477797 -318477795 331649598#1 330222366#0 330222366#1 330222366#3 330222366#4 330222366#5 330222366#6 330222367#0 330222367#1 330222367#2 330222367#3 330222367#4 330222367#5 330222367#6 330222367#7 330222367#8 330222367#9 330222367#10 -27768547#1"/>
    </vehicle>
    <vehicle id="bus12" type="bus" depart="97.11" departLane="best">
        <route edges="-207145445 -28233736#1 -28233736#0 95641233 24730643 318477798#3 -318477797 -318477795 24730642#0 24730642#1 24730642#2 24730642#3 24730642#4 24730642#5 24730642#6 24730642#8 24730642#9 24730642#10 -24730642#10"/>
    </vehicle>
    <vehicle id="bus23" type="bus" depart="186.12" departLane="best">
        <route edges="24730644#19 -24730644#19 -24730644#18 -24730644#17 -24730644#15 -24730644#14 -24730644#13 24730653#0 24730653#1 24730653#2 24730653#3 24730653#4 30036609 321823978#6 321823978#7 321823978#8 321823978#9 321823978#10 321823978#11 -321823978#11"/>
    </vehicle>
    <vehicle id="bus27" type="bus" depart="218.49" departLane="best">
        <route edges="-24730642#10 24730642#10 24730653#3 330222367#3 330222367#4 330222367#5 330222367#6 330222367#7 330222367#8 330222367#9 330222367#10 27768547#2 -321823978#21 -321823978#20"/>
    </vehicle>
    <vehicle id="bus29" type="bus" depart="234.68" departLane="best">
        <route edges="218164911 -218164908#1 -218164908#0 35572872#0 35572872#1 28234118#1 28234118#2 28234118#3 -28233736#2 -28233736#1 -28233736#0 95641233 24730643 318477798#3 -318477797 -24730644#23 -24730644#22 -24730644#21 24730644#21"/>
    </vehicle>
    <vehicle id="bus30" type="bus" depart="242.77" departLane="best">
        <route edges="-30029227#2 -30029227#1"/>
    </vehicle>
    <vehicle id="bus31" type="bus" depart="250.86" departLane="best">
        <route edges="-24730644#6 24730644#6 24730644#7 24730644#8 24730644#9 24730644#10 24730644#11 24730644#12 24730653#0 24730653#1 24730653#2 24730653#3 -330222367#2 -330222367#1 -330222367#0 -330222366#6 -330222366#5 -330222366#4 330222366#4"/>
    </vehicle>
    <vehicle id="bus38" type="bus" depart="307.51" departLane="best">
        <route edges="35572872#1 28234118#1 28234118#2 28234118#3 -28233736#2 -28233736#1 -28233736#0 95641233 24730643 318477798#3 -318477797 -24730644#23 -24730644#22 -24730644#21 -24730644#19 -24730644#18 -24730644#17 -24730644#15 -24730644#14 -24730644#13 -24730644#12 -24730644#11 -24730644#10 -24730644#9 -24730644#8 -24730644#7 -24730644#6 -24730644#5 -24730644#4 -24730644#2 -24730644#1 -24730644#0 24730647#2 24730651#0 24730651#1 24730651#2 30029312#0 30029312#1 206632633"/>
    </vehicle>
    <vehicle id="bus43" type="bus" depart="347.97" departLane="best">
        <route edges="35572872#0 35572872#1 28234118#1 28234118#2 207145437"/>
    </vehicle>
    <vehicle id="bus44" type="bus" depart="356.06" departLane="best">
        <route edges="-102580576#1 -102580576#0 -30029318 35572872#1 28234118#1 28234118#2 28234118#3 -28233736#2 -28233736#1 -28233736#0 95641233 24730643 318477798#3 -318477797 -24730644#23 -24730644#22 -24730644#21 -24730644#19 -24730644#18 -24730644#17 -24730644#15 -24730644#14 -24730644#13 -24730644#12 -24730644#11 -24730644#10 -24730644#9 -24730644#8 -24730644#7 -24730644#6 -24730644#5 -24730644#4 -24730644#2 -24730644#1 -24730644#0 24730647#2 24730651#0 24730651#1 24730651#2 24730651#3 24730651#4 24730651#6"/>
    </vehicle>
    <vehicle id="bus48" type="bus" depart="388.43" departLane="best">
        <route edges="30444184#0 -30029232#3 -30029232#2 -30029232#1 -30029227#0"/>
    </vehicle>
    <vehicle id="bus49" type="bus" depart="396.53" departLane="best">
        <route edges="191207584#0 -191207584#0 24730647#4 24730647#1 24730644#0 24730644#1 24730644#2 24730644#4 24730644#5 24730644#6 24730644#7 24730644#8 24730644#9 24730644#10 24730644#11 24730644#12 24730653#0 24730653#1 24730653#2 24730653#3 24730653#4 -24730653#4"/>
    </vehicle>
    <vehicle id="bus51" type="bus" depart="412.71" departLane="best">
        <route edges="24730642#6 24730642#8 24730642#9 24730642#10 -24730653#2 -24730653#1 -24730653#0 -24730644#12 -24730644#11 -24730644#10 -24730644#9 -24730644#8 -24730644#7 -24730644#6 -24730644#5 -24730644#4 -24730644#2 -24730644#1 -24730644#0 24730647#2 24730651#0 -24730651#0"/>
    </vehicle>
    <vehicle id="bus54" type="bus" depart="436.99" departLane="best">
        <route edges="-102580563 -28233736#2 -28233736#1 -28233736#0 95641233 24730643 318477798#3 -318477797 -24730644#23 -24730644#22 -24730644#21 -24730644#19 -24730644#18 -24730644#17 -24730644#15 -24730644#14 -24730644#13 -24730644#12 -24730644#11 -24730644#10 -24730644#9 -24730644#8 -24730644#7 -24730644#6 -24730644#5 -24730644#4 -24730644#2 -24730644#1 -24730644#0 24730647#2 24730651#0 24730651#1 24730651#2 30029312#0 30029312#1 30029312#3 30029312#4 30029312#6 30029312#7 30029312#8 30029312#9 30029312#10 30029312#11 -30029312#11"/>
    </vehicle>
    <vehicle id="bus55" type="bus" depart="445.08" departLane="best">
        <route edges="-102580576#4 -102580576#3 -102580576#2 -218164908#5 -218164908#4 -218164908#3 -218164908#2 -218164908#1 -218164908#0 35572872#0 35572872#1 28234118#1 28234118#2 28234118#3 -28233736#2 -28233736#1 -28233736#0 95641233 24730643 318477798#3 -318477797 -318477795 331649598#1 330222366#0 330222366#1 330222366#3 330222366#4 330222366#5 330222366#6 330222367#0 330222367#1 330222367#2 24730653#4 30036609 321823978#6"/>
    </vehicle>
    <vehicle id="bus59" type="bus" depart="477.45" departLane="best">
        <route edges="-207145441 28234118#2 28234118#3 -28233736#2 -28233736#1 -28233736#0 95641233 24730643 318477798#3 -318477797 -24730644#23 -24730644#22 -24730644#21 -24730644#19 -24730644#18 -24730644#17 -24730644#15 -24730644#14 -24730644#13 -24730644#12 -24730644#11 -24730644#10 -24730644#9 -24730644#8 -24730644#7 -24730644#6 -24730644#5 -24730644#4 -24730644#2 -24730644#1 -24730644#0 24730647#2 191207584#0"/>
    </vehicle>
    <vehicle id="bus62" type="bus" depart="501.73" departLane="best">
        <route edges="-35573057 -102580576#0 -30029318 35572872#1 28234118#1 28234118#2 28234118#3 -28233736#2 207145445"/>
    </vehicle>
    <vehicle id="bus67" type="bus" depart="542.19" departLane="best">
        <route edges="35572872#0 35572872#1 28234118#1 28234118#2 28234118#3 -28233736#2 -28233736#1 -28233736#0 95641233 24730643 318477798#3 -318477797 -318477795 24730642#0 24730642#1 24730642#2 24730642#3 24730642#4"/>
    </vehicle>
    <vehicle id="bus69" type="bus" depart="558.37" departLane="best">
        <route edges="-218164908#0 35572872#0 35572872#1 28234118#1 28234118#2 28234118#3 -28234119"/>
    </vehicle>
    <vehicle id="bus72" type="bus" depart="582.65" departLane="best">
        <route edges="-24730651#4 -24730651#3 -24730651#2 -24730651#1 -24730651#0 24730647#4 -330222367#12 -330222367#11 27768547#2 -321823978#21 -321823978#20 -321823978#18 -321823978#17 -321823978#16 -321823978#15 -321823978#14 -321823978#12 321823978#12"/>
    </vehicle>
    <vehicle id="bus74" type="bus" depart="598.84" departLane="best">
        <route edges="-24730644#8 24730644#8 24730644#9 24730644#10 24730644#11 24730644#12 24730644#13 24730644#14 24730644#15 24730644#17 24730644#18 24730644#19 -24730644#19"/>
    </vehicle>
    <vehicle id="bus75" type="bus" depart="606.93" departLane="best">
        <route edges="321823978#9 -321823978#9 -321823978#8 -321823978#7 -321823978#6 -30036609 -24730653#4 -330222367#2 -330222367#1 -330222367#0 -330222366#6 -330222366#5 -330222366#4 -330222366#3 -330222366#1 -330222366#0 -331649598#1 -331649598#0 24730644#24 24730775 331649600 319828651#0 211260242#1"/>
    </vehicle>
    <vehicle id="bus76" type="bus" depart="615.02" departLane="best">
        <route edges="-35573057 -102580576#0 -30029318 35572872#1 28234118#1 28234118#2"/>
    </vehicle>
    <vehicle id="bus78" type="bus" depart="631.21" departLane="best">
        <route edges="-207145445 -28233736#1 -28233736#0 95641233 24730643 318477798#3 -318477797 -318477795 331649598#1 330222366#0 330222366#1 330222366#3 330222366#4 330222366#5 330222366#6 330222367#0 330222367#1 330222367#2 330222367#3 330222367#4 330222367#5 330222367#6 330222367#7 330222367#8 330222367#9 -330222367#9"/>
    </vehicle>
    <vehicle id="bus79" type="bus" depart="639.30" departLane="best">
        <route edges="27768549#1 -30036615 -333396429 -27768547#2 -27768547#1 -27768547#0 24730644#4 24730644#5 24730644#6 24730644#7 24730644#8 24730644#9 24730644#10 24730644#11 24730644#12 24730644#13 24730644#14"/>
    </vehicle>
    <vehicle id="bus81" type="bus" depart="655.48" departLane="best">
        <route edges="30029312#4 -30029312#5 -30029312#3 -30029312#1 -30029312#0 24730651#3 24730651#4 24730651#6 24730651#7 24730651#8 24730651#10 -30029209#5 -30029209#4 -30029209#3 -30029209#2 -30029209#1"/>
    </vehicle>
    <vehicle id="bus84" type="bus" depart="679.76" departLane="best">
        <route edges="-25649885#2 -25649885#1 -25649885#0 -24730651#10 -24730651#8 -24730651#7 -24730651#6 -24730651#4 -24730651#3 -24730651#2 -24730651#1 -24730651#0 24730647#4 24730647#1 24730644#0 24730644#1 24730644#2 24730644#4 24730644#5 24730644#6 24730644#7 24730644#8 24730644#9 24730644#10 24730644#11 24730644#12 24730653#0 24730653#1 24730653#2 24730653#3 -330222367#2 -330222367#1 -330222367#0 -330222366#6 -330222366#5 -330222366#4 -330222366#3 -330222366#1 -330222366#0 321823978#0 321823978#1 321823978#2 321823978#3"/>
    </vehicle>
    <vehicle id="bus85" type="bus" depart="687.85" departLane="best">
        <route edges="-330222367#2 330222367#2 -24730653#3 -24730653#2 -24730653#1 -24730653#0 -24730644#12 -24730644#11 -24730644#10 -24730644#9 -24730644#8 -24730644#7 -24730644#6 -24730644#5 -24730644#4 -24730644#2 -24730644#1 -24730644#0 24730647#2 24730651#0 24730651#1 24730651#2 30029312#0 30029312#1 30029312#3 30029312#4 30029312#6"/>
    </vehicle>
    <vehicle id="bus88" type="bus" depart="712.13" departLane="best">
        <route edges="102580576#1 -218164908#5 -218164908#4 -218164908#3 -218164908#2 -218164908#1 -218164908#0 35572872#0 35572872#1 -28234118#0"/>
    </vehicle>
    <vehicle id="bus93" type="bus" depart="752.59" departLane="best">
        <route edges="218164908#5 -218164908#5 -218164908#4 -218164908#3 -218164908#2 -218164908#1 -218164908#0 35572872#0 35572872#1 28234118#1 28234118#2 28234118#3 -28233736#2 -28233736#1 -28233736#0 95641233 24730643 318477798#3 -318477797 -24730644#23 -24730644#22 -24730644#21 -24730644#19 -24730644#18 -24730644#17 -24730644#15 -24730644#14 -24730644#13 -24730644#12 -24730644#11 -24730644#10 -24730644#9 -24730644#8 -24730644#7 -24730644#6 -24730644#5 -24730644#4 -24730644#2 -24730644#1 -24730644#0 24730647#2 24730651#0 24730651#1 24730651#2 24730651#3 24730651#4"/>
    </vehicle>
    <vehicle id="bus98" type="bus" depart="793.05" departLane="best">
        <route edges="-218164915 35572872#0 35572872#1 28234118#1 28234118#2 28234118#3 -28233736#2 -28233736#1 -28233736#0 95641233 24730643 318477798#3 -318477797 -318477795 331649598#1 330222366#0 330222366#1 330222366#3 330222366#4 330222366#5 330222366#6 330222367#0 330222367#1 330222367#2 330222367#3"/>
    </vehicle>
    <vehicle id="bus99" type="bus" depart="801.15" departLane="best">
        <route edges="-207145437 28234118#3 -28233736#2 -28233736#1 -28233736#0 95641233 24730643 318477798#3 -318477797 -24730644#23 -24730644#22 -24730644#21 -24730644#19 -24730644#18 -24730644#17 -24730644#15 -24730644#14 -24730644#13 -24730644#12 -24730644#11 -24730644#10 -24730644#9 -24730644#8 -24730644#7 -24730644#6 -24730644#5 -24730644#4 -24730644#2 -24730644#1 -24730644#0 24730647#2 24730651#0 24730651#1 24730651#2 30029312#0 30029312#1 30029312#3 30029312#4 30029312#6 30029312#7 30029312#8 30029312#9 30029312#10 30029312#11 -25649885#3"/>
    </vehicle>
    <vehicle id="bus100" type="bus" depart="809.24" departLane="best">
        <route edges="318477798#3 -318477797 -24730644#23 -24730644#22 -24730644#21 -24730644#19 -24730644#18 -24730644#17 -24730644#15 -24730644#14 -24730644#13 -24730644#12 -24730644#11 -24730644#10 -24730644#9 -24730644#8 -24730644#7 -24730644#6 -24730644#5 -24730644#4 -24730644#2 -24730644#1 -24730644#0 24730647#2 24730651#0 24730651#1 24730651#2 24730651#3 24730651#4 24730651#6 24730651#7 24730651#8 24730651#10 -30029209#5 -30029209#4 -30029209#3 -30029209#2 -30029209#1 -30029209#0"/>
    </vehicle>
    <vehicle id="bus103" type="bus" depart="833.51" departLane="best">
        <route edges="206632633 -206632633 -30029312#1 -30029312#0 -24730651#2 -24730651#1 -24730651#0 24730647#4 -330222367#12 -330222367#11 27768547#2 -321823978#21 -321823978#20 -321823978#18 -321823978#17 -321823978#16 -321823978#15 -321823978#14 -321823978#12 -321823978#11 -321823978#10 -321823978#9 321823978#9"/>
    </vehicle>
    <vehicle id="bus104" type="bus" depart="841.61" departLane="best">
        <route edges="-24730644#22 -24730644#21 -24730644#19 -24730644#18 -24730644#17 -24730644#15 -24730644#14 -24730644#13 -24730644#12 -24730644#11 -24730644#10 -24730644#9 -24730644#8 -24730644#7 -24730644#6 -24730644#5 -24730644#4 -24730644#2 -24730644#1 -24730644#0 24730647#2 24730651#0 24730651#1 24730651#2"/>
    </vehicle>
    <vehicle id="bus105" type="bus" depart="849.70" departLane="best">
        <route edges="-24730653#1 24730653#1 24730653#2 24730653#3 -330222367#2 -330222367#1 -330222367#0 -330222366#6 -330222366#5 -330222366#4 -330222366#3 -330222366#1 -330222366#0"/>
    </vehicle>
    <vehicle id="bus113" type="bus" depart="914.44" departLane="best">
        <route edges="24730647#4 24730647#1 24730644#0 24730644#1 24730644#2 24730644#4 24730644#5 24730644#6 24730644#7 24730644#8 24730644#9 24730644#10 24730644#11 24730644#12 24730653#0 24730653#1 24730653#2 24730653#3 -330222367#2 -330222367#1 -330222367#0 -330222366#6 -330222366#5 -330222366#4 -330222366#3 -330222366#1 330222366#1"/>
    </vehicle>
    <vehicle id="bus114" type="bus" depart="922.53" departLane="best">
        <route edges="-218164910 -218164908#0 35572872#0 35572872#1 28234118#1 28234118#2 28234118#3 -28233736#2 -28233736#1 -28233736#0 95641233 24730643 318477798#3 -318477797 -24730644#23 -24730644#22 -24730644#21 -24730644#19 -24730644#18 -24730644#17 -24730644#15 -24730644#14 -24730644#13 -24730644#12 -24730644#11 -24730644#10 -24730644#9 -24730644#8 -24730644#7 -24730644#6 -24730644#5 -24730644#4 -24730644#2 -24730644#1"/>
    </vehicle>
    <vehicle id="bus116" type="bus" depart="938.72" departLane="best">
        <route edges="27369330#0 35572872#0 35572872#1 28234118#1 28234118#2 28234118#3 -28233736#2 -28233736#1 -28233736#0 95641233 24730643 318477798#3 -318477797 -318477795 331649598#1 330222366#0 330222366#1 330222366#3 330222366#4 330222366#5 330222366#6 330222367#0 330222367#1 330222367#2 330222367#3 330222367#4 330222367#5 330222367#6 330222367#7 330222367#8 330222367#9 330222367#10 27768547#2 333396429 30036615 -27768549#1"/>
    </vehicle>
    <vehicle id="bus118" type="bus" depart="954.90" departLane="best">
        <route edges="102580576#3 -102580576#3 -102580576#2 -218164908#5 -218164908#4 -218164908#3 -218164908#2 -218164908#1 -218164908#0 35572872#0 35572872#1 28234118#1 28234118#2 28234118#3 -28233736#2 -28233736#1 -28233736#0 95641233 24730643 318477798#3 -318477797 -318477795 331649598#1 330222366#0 330222366#1 330222366#3 330222366#4 330222366#5 330222366#6 330222367#0 330222367#1 330222367#2 24730653#4 30036609 321823978#6 321823978#7 321823978#8 321823978#9 321823978#10 321823978#11"/>
    </vehicle>
    <vehicle id="bus121" type="bus" depart="979.18" departLane="best">
        <route edges="-102580563 -28233736#2 -28233736#1 -28233736#0 95641233 24730643 318477798#3 -318477797 -318477795 331649598#1 330222366#0 330222366#1 330222366#3 330222366#4 330222366#5 330222366#6 330222367#0 330222367#1 330222367#2 330222367#3 330222367#4 330222367#5 330222367#6 330222367#7 330222367#8 330222367#9 330222367#10 27768547#2"/>
    </vehicle>
    <vehicle id="bus123" type="bus" depart="995.36" departLane="best">
        <route edges="-330222366#4 330222366#4 330222366#5 330222366#6 330222367#0 330222367#1 330222367#2 -24730653#3 -24730653#2 -24730653#1 -24730653#0 -24730644#12 -24730644#11 -24730644#10 -24730644#9 -24730644#8 -24730644#7 -24730644#6 -24730644#5 -24730644#4 -24730644#2 -24730644#1 -24730644#0 24730647#2 191207584#0 191207584#1 -191207584#1"/>
    </vehicle>
    <vehicle id="bus124" type="bus" depart="1003.45" departLane="best">
        <route edges="-207145437 28234118#3 -28233736#2 -28233736#1 -28233736#0 95641233 333394471 319828651#0 319828651#2"/>
    </vehicle>
    <vehicle id="bus127" type="bus" depart="1027.73" departLane="best">
        <route edges="-30029209#4 30029209#4 30029209#5 -24730651#10 -24730651#8 -24730651#7 -24730651#6 -24730651#4 -24730651#3 -24730651#2 -24730651#1 -24730651#0 24730647#4 24730647#1 24730644#0 24730644#1 24730644#2 24730644#4 24730644#5 24730644#6 24730644#7 24730644#8 24730644#9 24730644#10 24730644#11 24730644#12 24730653#0 24730653#1 24730653#2 24730653#3 -330222367#2 -330222367#1 -330222367#0 -330222366#6 -330222366#5 -330222366#4 -330222366#3 -330222366#1 -330222366#0 321823978#0"/>
    </vehicle>
    <vehicle id="bus129" type="bus" depart="1043.92" departLane="best">
        <route edges="-25649885#2 -25649885#1 -25649885#0 -24730651#10 -24730651#8 -24730651#7 -24730651#6 -24730651#4 -24730651#3 -24730651#2 -24730651#1 -24730651#0 24730647#4 24730647#1 24730644#0 24730644#1 24730644#2 24730644#4 24730644#5 24730644#6 24730644#7 24730644#8 24730644#9 24730644#10 24730644#11 24730644#12 24730653#0 24730653#1 24730653#2 -24730642#10 -24730642#9 -24730642#8 -24730642#6 -24730642#5 -24730642#4"/>
    </vehicle>
    <vehicle id="bus130" type="bus" depart="1052.01" departLane="best">
        <route edges="30029209#0 30029209#1 30029209#2 30029209#3 30029209#4 30029209#5 -24730651#10 -24730651#8 -24730651#7 -24730651#6 -24730651#4 -24730651#3 -24730651#2 -24730651#1 -24730651#0 24730647#4 24730647#1 24730644#0 24730644#1 24730644#2 24730644#4 24730644#5 24730644#6 24730644#7 24730644#8 24730644#9 24730644#10 24730644#11 24730644#12 24730644#13 24730644#14 24730644#15 24730644#17 24730644#18 24730644#19 24730644#21 24730644#22 24730644#23 24730644#24 24730775 331649600 319828651#0 319828651#2"/>
    </vehicle>
    <vehicle id="bus132" type="bus" depart="1068.19" departLane="best">
        <route edges="-218164915 35572872#0 35572872#1 28234118#1 28234118#2 28234118#3 -28233736#2 -28233736#1 -28233736#0 95641233 24730643 318477798#3 -318477797 -318477795 331649598#1 330222366#0 330222366#1 330222366#3 330222366#4 330222366#5 330222366#6 330222367#0 330222367#1 330222367#2 24730653#4 30036609 321823978#6"/>
    </vehicle>
    <vehicle id="bus133" type="bus" depart="1076.29" departLane="best">
        <route edges="30029312#7 -30029312#7 -30029312#6 -30029312#5 -30029312#3 -30029312#1 -30029312#0 -24730651#2 -24730651#1 -24730651#0 24730647#4 24730647#1 24730644#0 24730644#1 24730644#2 24730644#4 24730644#5 24730644#6 24730644#7 24730644#8 24730644#9 24730644#10 24730644#11 24730644#12 24730644#13 24730644#14 24730644#15 24730644#17 24730644#18 24730644#19 24730644#21 24730644#22 24730644#23 24730644#24 24730775 331649600"/>
    </vehicle>
    <vehicle id="bus135" type="bus" depart="1092.47" departLane="best">
        <route edges="-102580576#4 -102580576#3 -102580576#2 -218164908#5 -218164908#4 -218164908#3 -218164908#2 -218164908#1 -218164908#0 35572872#0 35572872#1 28234118#1 28234118#2 28234118#3 -28233736#2 -28233736#1 -28233736#0 95641233 333394471 319828651#0 24730725#2"/>
    </vehicle>
    <vehicle id="bus138" type="bus" depart="1116.75" departLane="best">
        <route edges="30029209#3 30029209#4 30029209#5 -24730651#10 -24730651#8 -24730651#7 -24730651#6 -24730651#4 -24730651#3 -24730651#2 -24730651#1 -24730651#0 24730647#4 24730647#1 24730644#0 24730644#1 24730644#2 24730644#4 24730644#5 24730644#6 24730644#7 24730644#8 24730644#9 24730644#10 24730644#11 24730644#12 24730653#0 24730653#1 24730653#2 -24730642#10 -24730642#9 -24730642#8 -24730642#6"/>
    </vehicle>
    <vehicle id="bus141" type="bus" depart="1141.03" departLane="best">
        <route edges="30029227#0 30029232#1 -28404800#0"/>
    </vehicle>
    <vehicle id="bus145" type="bus" depart="1173.39" departLane="best">
        <route edges="330222366#1 330222366#3 330222366#4 330222366#5 330222366#6 330222367#0 330222367#1 330222367#2 -24730653#3 -24730653#2 -24730653#1 -24730653#0 -24730644#12 -24730644#11 -24730644#10 -24730644#9 -24730644#8 -24730644#7 -24730644#6 -24730644#5 -24730644#4 -24730644#2 -24730644#1"/>
    </vehicle>
    <vehicle id="bus146" type="bus" depart="1181.49" departLane="best">
        <route edges="330222367#8 -330222367#8 -330222367#7 -330222367#6 -330222367#5 -330222367#4 -330222367#3 24730653#4 -24730653#4"/>
    </vehicle>
    <vehicle id="bus148" type="bus" depart="1197.67" departLane="best">
        <route edges="24730642#5 24730642#6 24730642#8 24730642#9 24730642#10 -24730653#2 -24730653#1 -24730653#0 -24730644#12 -24730644#11 -24730644#10 -24730644#9 -24730644#8 -24730644#7 -24730644#6 -24730644#5 -24730644#4 -24730644#2 -24730644#1 -24730644#0 24730647#2 24730651#0 24730651#1 24730651#2 30029312#0 30029312#1 30029312#3 -206632640#1 -206632640#0 206632640#0"/>
    </vehicle>
    <vehicle id="bus149" type="bus" depart="1205.76" departLane="best">
        <route edges="-321823978#1 -321823978#0 -331649598#1 -331649598#0 24730644#24 24730775 331649600 319828651#0 211260242#1"/>
    </vehicle>
    <vehicle id="bus150" type="bus" depart="1213.86" departLane="best">
        <route edges="-25649885#5 -25649885#4 -30029312#11 -30029312#10 -30029312#9 -30029312#8 -30029312#7 -30029312#6 -30029312#5 -30029312#3 -30029312#1 -30029312#0 -24730651#2 -24730651#1 -24730651#0 24730651#0"/>
    </vehicle>
    <vehicle id="bus151" type="bus" depart="1221.95" departLane="best">
        <route edges="-102580563 -28233736#2 -28233736#1 -28233736#0 95641233 24730643 318477798#3 -318477797 -318477795 331649598#1 321823978#0 321823978#1 321823978#2 321823978#3 321823978#4"/>
    </vehicle>
    <vehicle id="bus157" type="bus" depart="1270.50" departLane="best">
        <route edges="-30029209#4 30029209#4 30029209#5 -24730651#10 -24730651#8 -24730651#7 -24730651#6 -24730651#4 -24730651#3 -24730651#2 -24730651#1 -24730651#0 24730647#4 24730647#1 24730644#0 24730644#1 24730644#2 24730644#4 24730644#5 24730644#6 24730644#7 24730644#8 24730644#9 24730644#10 24730644#11 24730644#12 24730653#0 24730653#1 24730653#2 24730653#3 -330222367#2 -330222367#1 -330222367#0"/>
    </vehicle>
    <vehicle id="bus159" type="bus" depart="1286.69" departLane="best">
        <route edges="-218164908#3 -218164908#2 -218164908#1 -218164908#0 35572872#0 35572872#1 28234118#1 28234118#2 28234118#3 -28233736#2 -28233736#1 -28233736#0 95641233 24730643 318477798#3 -318477797 -318477795 331649598#1 330222366#0 330222366#1 330222366#3 330222366#4 330222366#5 330222366#6 330222367#0 330222367#1 330222367#2 330222367#3 -330222367#3"/>
    </vehicle>
    <vehicle id="bus166" type="bus" depart="1343.33" departLane="best">
        <route edges="-35573057 -102580576#0 -30029318 35572872#1 28234118#1 28234118#2 28234118#3 -28233736#2 -28233736#1 -28233736#0 95641233 24730643 318477798#3 -318477797 -318477795 331649598#1 321823978#0 321823978#1"/>
    </vehicle>
    <vehicle id="bus168" type="bus" depart="1359.52" departLane="best">
        <route edges="-207145441 28234118#2 28234118#3 -28233736#2 -28233736#1 -28233736#0 95641233 24730643 318477798#3 -318477797 -24730644#23 -24730644#22 -24730644#21 -24730644#19 -24730644#18 -24730644#17 -24730644#15 -24730644#14 -24730644#13 -24730644#12 -24730644#11 -24730644#10 -24730644#9 -24730644#8 -24730644#7 -24730644#6 -24730644#5 -24730644#4 -24730644#2 -24730644#1 -24730644#0 24730647#2 24730651#0 24730651#1 24730651#2 30029312#0 30029312#1 30029312#3 30029312#4 30029312#6 -206633608#1 206633608#1"/>
    </vehicle>
    <vehicle id="bus169" type="bus" depart="1367.61" departLane="best">
        <route edges="24730644#18 -24730644#18 -24730644#17 -24730644#15 -24730644#14 -24730644#13 -24730644#12 -24730644#11 -24730644#10 -24730644#9 -24730644#8 -24730644#7 -24730644#6 -24730644#5 -24730644#4 -24730644#2 -24730644#1 -24730644#0 24730647#2 24730651#0 24730651#1 24730651#2 30029312#0 30029312#1 30029312#3 30029312#4 30029312#6 30029312#7 30029312#8 30029312#9 -30029312#9"/>
    </vehicle>
    <vehicle id="bus174" type="bus" depart="1408.07" departLane="best">
        <route edges="-321823978#6 -30036609 -24730653#4 -330222367#2 -330222367#1 -330222367#0 -330222366#6 -330222366#5 -330222366#4 -330222366#3 -330222366#1 -330222366#0 -331649598#1 -331649598#0 24730644#24 24730775 331649600 319828651#0 24730725#2 24730725#4 24730640#1"/>
    </vehicle>
    <vehicle id="bus175" type="bus" depart="1416.17" departLane="best">
        <route edges="-24730644#17 -24730644#15 -24730644#14 -24730644#13 -24730644#12 -24730644#11 -24730644#10 -24730644#9 -24730644#8 -24730644#7 -24730644#6 24730644#6"/>
    </vehicle>
    <vehicle id="bus178" type="bus" depart="1440.44" departLane="best">
        <route edges="28234118#0 28234118#1 28234118#2 28234118#3 -28233736#2 -28233736#1 -28233736#0 95641233 24730643 318477798#3 -318477797 -24730644#23 -24730644#22 -24730644#21 -24730644#19 -24730644#18 -24730644#17 -24730644#15 -24730644#14 -24730644#13 -24730644#12 -24730644#11 -24730644#10 -24730644#9 -24730644#8 -24730644#7 -24730644#6 -24730644#5 -24730644#4 27768547#0 27768547#1"/>
    </vehicle>
    <vehicle id="bus179" type="bus" depart="1448.54" departLane="best">
        <route edges="-207147909 -28233736#0 95641233 24730643 318477798#3 -318477797 -318477795 331649598#1 330222366#0 330222366#1 330222366#3 330222366#4 330222366#5 330222366#6 330222367#0 330222367#1 330222367#2 330222367#3 330222367#4 330222367#5 330222367#6 -330222367#6"/>
    </vehicle>
    <vehicle id="bus182" type="bus" depart="1472.81" departLane="best">
        <route edges="-330222367#9 330222367#9 330222367#10 330222367#11 330222367#12 24730647#1 24730647#2 24730651#0 24730651#1 24730651#2 24730651#3 24730651#4 24730651#6 24730651#7 24730651#8 24730651#10 -30029209#5 -30029209#4 -30029209#3 -30029209#2 30029209#2"/>
    </vehicle>
    <vehicle id="bus189" type="bus" depart="1529.46" departLane="best">
        <route edges="-25649885#1 -25649885#0 -24730651#10 -24730651#8 -24730651#7 -24730651#6 -24730651#4 -24730651#3 -24730651#2 -24730651#1 -24730651#0 24730647#4 24730647#1 24730644#0 24730644#1 24730644#2 24730644#4 24730644#5 24730644#6 24730644#7 24730644#8 24730644#9 24730644#10 24730644#11 24730644#12 24730644#13 24730644#14 24730644#15 24730644#17 24730644#18 24730644#19 24730644#21 24730644#22 24730644#23 24730644#24 24730775 331649600 319828651#0 24730725#2 24730725#4 24730640#1"/>
    </vehicle>
    <vehicle id="bus194" type="bus" depart="1569.92" departLane="best">
        <route edges="-24730651#6 -24730651#4 -24730651#3 -24730651#2 -24730651#1 -24730651#0 24730647#4 24730647#1 24730644#0 24730644#1 24730644#2 24730644#4 24730644#5"/>
    </vehicle>
    <vehicle id="bus202" type="bus" depart="1634.66" departLane="best">
        <route edges="-321823978#9 321823978#9 321823978#10 321823978#11 321823978#12 321823978#14 321823978#15 321823978#16 321823978#17 321823978#18 321823978#20 321823978#21 -27768547#2 330222367#11 330222367#12 24730647#1 24730647#2 24730651#0 24730651#1 24730651#2 24730651#3 24730651#4 24730651#6 24730651#7 24730651#8 24730651#10 25649885#0 25649885#1 25649885#2 25649885#3"/>
    </vehicle>